# File generated by Flopy version 3.9.5 on 04/21/2026 at 01:40:18.
BEGIN options
  DENSEREF    1000.00000000
END options

BEGIN dimensions
  NRHOSPECIES  1
END dimensions

BEGIN packagedata
  1       0.70000000       0.00000000  gwt_swi  CONCENTRATION
END packagedata

