# File generated by Flopy version 3.9.5 on 04/21/2026 at 01:40:18.
BEGIN options
  SAVE_SPECIFIC_DISCHARGE
END options

BEGIN griddata
  icelltype
    CONSTANT  1
  k  LAYERED
    INTERNAL  FACTOR  1.0
          24.05985264      24.06656559      24.07356374      24.08086148      24.08847405      24.09641756      24.10470902      24.11336645      24.12240890      24.13185655      24.14173073      24.15205405      24.16285042      24.17414521      24.18596523      24.19833894      24.21129647      24.22486974      24.23909259      24.25400090      24.26963268      24.28602823      24.30323028      24.32128413      24.34023778      24.36014214      24.38105114      24.40302196      24.42611519      24.45039501      24.47592941      24.50279038      24.53105413      24.56080129      24.59211715      24.62509187      24.65982068      24.69640413      24.73494831      24.77556501      24.81837195      24.86349295      24.91105808      24.96120380      25.01407302      25.06981520      25.12858627      25.19054865      25.25587102      25.32472818      25.39730061      25.47377412      25.55433919      25.63919026      25.72852481      25.82254226      25.92144265      26.02542509      26.13468596      26.24941688      26.36980231      26.49601697      26.62822291      26.76656629      26.91117390      27.06214945      27.21956957      27.38347971      27.55388992      27.73077060      27.91404830      28.10360177      28.29925825      28.50079029      28.70791309      28.92028270      29.13749509      29.35908618      29.58453322      29.81325730      30.04462722      30.27796477      30.51255122      30.74763509      30.98244107      31.21617970      31.44805782      31.67728933      31.90310611      32.12476861      32.34157592      32.55287506      32.75806912      32.95662406      33.14807411      33.33202557      33.50815901      33.67622989      33.83606769      33.98757366      34.13071743      34.26553250      34.39211103      34.51059799      34.62118493      34.72410358      34.81961938      34.90802523      34.98963542      35.06477997      35.13379940      35.19703997      35.25484944      35.30757340      35.35555204      35.39911753      35.43859177      35.47428466      35.50649276      35.53549828
    INTERNAL  FACTOR  1.0
          23.95798601      23.96467054      23.97163906      23.97890590      23.98648624      23.99439611      24.00265247      24.01127324      24.02027741      24.02968506      24.03951744      24.04979704      24.06054771      24.07179467      24.08356465      24.09588598      24.10878864      24.12230444      24.13646708      24.15131227      24.16687786      24.18320400      24.20033322      24.21831063      24.23718403      24.25700411      24.27782459      24.29970239      24.32269785      24.34687487      24.37230116      24.39904840      24.42719249      24.45681370      24.48799698      24.52083208      24.55541385      24.59184242      24.63022340      24.67066813      24.71329383      24.75822380      24.80558754      24.85552095      24.90816633      24.96367250      25.02219474      25.08389478      25.14894059      25.21750621      25.28977138      25.36592111      25.44614507      25.53063689      25.61959321      25.71321260      25.81169426      25.91523645      26.02403473      26.13827989      26.25815562      26.38383590      26.51548209      26.65323974      26.79723511      26.94757145      27.10432506      27.26754122      27.43722994      27.61336172      27.79586345      27.98461437      28.17944247      28.38012124      28.58636711      28.79783758      29.01413030      29.23478320      29.45927573      29.68703142      29.91742175      30.14977138      30.38336461      30.61745317      30.85126500      31.08401401      31.31491038      31.54317136      31.76803206      31.98875606      32.20464543      32.41504996      32.61937525      32.81708952      33.00772900      33.19090163      33.36628935      33.53364863      33.69280969      33.84367421      33.98621192      34.12045620      34.24649881      34.36448411      34.47460284      34.57708574      34.67219714      34.76022869      34.84149335      34.91631976      34.98504697      35.04801978      35.10558449      35.15808522      35.20586073      35.24924176      35.28854887      35.32409065      35.35616238      35.38504509
    INTERNAL  FACTOR  1.0
          23.79247571      23.79911406      23.80603443      23.81325108      23.82077905      23.82863428      23.83683360      23.84539482      23.85433678      23.86367944      23.87344389      23.88365248      23.89432888      23.90549814      23.91718681      23.92942301      23.94223654      23.95565897      23.96972377      23.98446640      23.99992446      24.01613781      24.03314870      24.05100191      24.06974493      24.08942809      24.11010473      24.13183139      24.15466798      24.17867798      24.20392862      24.23049109      24.25844074      24.28785732      24.31882517      24.35143344      24.38577630      24.42195321      24.46006904      24.50023437      24.54256559      24.58718517      24.63422171      24.68381016      24.73609185      24.79121456      24.84933251      24.91060630      24.97520275      25.04329469      25.11506063      25.19068429      25.27035404      25.35426216      25.44260393      25.53557657      25.63337788      25.73620477      25.84425143      25.95770734      26.07675492      26.20156696      26.33230370      26.46910967      26.61211026      26.76140802      26.91707873      27.07916734      27.24768378      27.42259878      27.60383972      27.79128669      27.98476884      28.18406125      28.38888230      28.59889186      28.81369036      29.03281891      29.25576056      29.48194283      29.71074154      29.94148602      30.17346550      30.40593689      30.63813348      30.86927457      31.09857582      31.32525989      31.54856717      31.76776633      31.98216427      32.19111525      32.39402898      32.59037738      32.77969985      32.96160706      33.13578313      33.30198624      33.46004776      33.60987005      33.75142306      33.88473993      34.00991180      34.12708201      34.23644000      34.33821492      34.43266925      34.52009265      34.60079591      34.67510538      34.74335780      34.80589557      34.86306261      34.91520064      34.96264610      35.00572744      35.04476301      35.08005925      35.11190942      35.14059260
    INTERNAL  FACTOR  1.0
          23.52603399      23.53259800      23.53944088      23.54657671      23.55402038      23.56178764      23.56989513      23.57836048      23.58720231      23.59644034      23.60609544      23.61618971      23.62674655      23.63779073      23.64934851      23.66144768      23.67411772      23.68738983      23.70129712      23.71587466      23.73115961      23.74719140      23.76401179      23.78166507      23.80019820      23.81966093      23.84010602      23.86158938      23.88417023      23.90791135      23.93287922      23.95914422      23.98678088      24.01586804      24.04648909      24.07873219      24.11269047      24.14846224      24.18615124      24.22586677      24.26772394      24.31184384      24.35835364      24.40738677      24.45908298      24.51358839      24.57105551      24.63164312      24.69551618      24.76284559      24.83380785      24.90858464      24.98736220      25.07033067      25.15768314      25.24961462      25.34632069      25.44799606      25.55483275      25.66701812      25.78473254      25.90814687      26.03741954      26.17269348      26.31409267      26.46171851      26.61564593      26.77591937      26.94254867      27.11550488      27.29471618      27.48006400      27.67137943      27.86844005      28.07096740      28.27862515      28.49101821      28.70769284      28.92813786      29.15178721      29.37802371      29.60618417      29.83556582      30.06543387      30.29503018      30.52358282      30.75031623      30.97446176      31.19526832      31.41201276      31.62400975      31.83062077      32.03126217      32.22541174      32.41261407      32.59248418      32.76470973      32.92905160      33.08534306      33.23348755      33.37345537      33.50527928      33.62904940      33.74490748      33.85304082      33.95367599      34.04707258      34.13351696      34.21331645      34.28679377      34.35428186      34.41611930      34.47264614      34.52420030      34.57111444      34.61371334      34.65231176      34.68721273      34.71870622      34.74706819
    INTERNAL  FACTOR  1.0
          23.10343091      23.10987701      23.11659697      23.12360461      23.13091457      23.13854230      23.14650416      23.15481745      23.16350045      23.17257253      23.18205420      23.19196714      23.20233435      23.21318014      23.22453030      23.23641213      23.24885457      23.26188828      23.27554575      23.28986143      23.30487182      23.32061562      23.33713386      23.35447003      23.37267025      23.39178337      23.41186120      23.43295864      23.45513387      23.47844853      23.50296789      23.52876109      23.55590130      23.58446596      23.61453697      23.64620088      23.67954915      23.71467835      23.75169033      23.79069244      23.83179773      23.87512509      23.92079942      23.96895176      24.01971934      24.07324566      24.12968048      24.18917975      24.25190544      24.31802540      24.38771296      24.46114651      24.53850897      24.61998706      24.70577040      24.79605049      24.89101942      24.99086837      25.09578593      25.20595609      25.32155599      25.44275339      25.56970391      25.70254790      25.84140710      25.98638111      26.13754350      26.29493792      26.45857402      26.62842338      26.80441547      26.98643385      27.17431264      27.36783342      27.56672272      27.77065027      27.97922808      28.19201053      28.40849565      28.62812755      28.85030011      29.07436208      29.29962329      29.52536217      29.75083420      29.97528130      30.19794185      30.41806101      30.63490117      30.84775219      31.05594103      31.25884066      31.45587789      31.64653991      31.83037948      32.00701855      32.17615038      32.33754014      32.49102410      32.63650745      32.77396099      32.90341693      33.02496373      33.13874063      33.24493154      33.34375899      33.43547787      33.52036943      33.59873548      33.67089290      33.73716869      33.79789533      33.85340677      33.90403485      33.95010626      33.99193995      34.02984501      34.06411905      34.09504682      34.12289932
    INTERNAL  FACTOR  1.0
          22.44867127      22.45493468      22.46146419      22.46827324      22.47537603      22.48278759      22.49052381      22.49860149      22.50703841      22.51585339      22.52506634      22.53469835      22.54477174      22.55531016      22.56633866      22.57788375      22.58997357      22.60263790      22.61590831      22.62981828      22.64440326      22.65970088      22.67575099      22.69259585      22.71028026      22.72885171      22.74836053      22.76886006      22.79040684      22.81306075      22.83688522      22.86194744      22.88831849      22.91607361      22.94529239      22.97605893      23.00846211      23.04259573      23.07855878      23.11645556      23.15639590      23.19849535      23.24287526      23.28966294      23.33899175      23.39100112      23.44583655      23.50364959      23.56459761      23.62884371      23.69655629      23.76790871      23.84307869      23.92224766      24.00559987      24.09332139      24.18559886      24.28261806      24.38456222      24.49161012      24.60393387      24.72169650      24.84504919      24.97412833      25.10905222      25.24991761      25.39679600      25.54972980      25.70872840      25.87376416      26.04476857      26.22162849      26.40418273      26.59221906      26.78547177      26.98361993      27.18628657      27.39303869      27.60338854      27.81679599      28.03267210      28.25038407      28.46926130      28.68860266      28.90768472      29.12577092      29.34212118      29.55600208      29.76669692      29.97351566      30.17580435      30.37295373      30.56440685      30.74966545      30.92829494      31.09992799      31.26426656      31.42108248      31.57021665      31.71157694      31.84513501      31.97092211      32.08902424      32.19957665      32.30275808      32.39878472      32.48790426      32.57038996      32.64653508      32.71664754      32.78104504      32.84005067      32.89398890      32.94318216      32.98794789      33.02859599      33.06542682      33.09872952      33.12878078      33.15584393
    INTERNAL  FACTOR  1.0
          21.47018021      21.47617061      21.48241551      21.48892777      21.49572097      21.50280947      21.51020848      21.51793407      21.52600325      21.53443400      21.54324538      21.55245755      21.56209186      21.57217094      21.58271872      21.59376059      21.60532344      21.61743575      21.63012774      21.64343139      21.65738065      21.67201148      21.68736200      21.70347262      21.72038621      21.73814816      21.75680663      21.77641264      21.79702023      21.81868671      21.84147272      21.86544252      21.89066412      21.91720945      21.94515464      21.97458014      22.00557093      22.03821674      22.07261223      22.10885716      22.14705659      22.18732101      22.22976649      22.27451480      22.32169347      22.37143585      22.42388113      22.47917421      22.53746564      22.59891138      22.66367251      22.73191482      22.80380830      22.87952646      22.95924552      23.04314344      23.13139873      23.22418906      23.32168969      23.42407159      23.53149938      23.64412898      23.76210498      23.88555783      24.01460067      24.14932602      24.28980229      24.43607003      24.58813820      24.74598040      24.90953108      25.07868204      25.25327912      25.43311934      25.61794856      25.80745986      26.00129268      26.19903290      26.40021404      26.60431950      26.81078602      27.01900837      27.22834520      27.43812592      27.64765865      27.85623892      28.06315893      28.26771720      28.46922829      28.66703223      28.86050357      29.04905962      29.23216770      29.40935125      29.58019466      29.74434658      29.90152197      30.05150261      30.19413633      30.32933502      30.45707157      30.57737587      30.69033017      30.79606383      30.89474780      30.98658884      31.07182384      31.15071416      31.22354027      31.29059667      31.35218722      31.40862092      31.46020809      31.50725712      31.55007160      31.58894794      31.62417338      31.65602449      31.68476588      31.71064940
    INTERNAL  FACTOR  1.0
          20.08402504      20.08962869      20.09547041      20.10156222      20.10791684      20.11454770      20.12146902      20.12869583      20.13624404      20.14413049      20.15237299      20.16099040      20.17000271      20.17943105      20.18929785      20.19962684      20.21044317      20.22177349      20.23364606      20.24609080      20.25913947      20.27282570      20.28718516      20.30225566      20.31807727      20.33469248      20.35214632      20.37048653      20.38976366      20.41003130      20.43134621      20.45376848      20.47736172      20.50219324      20.52833423      20.55585996      20.58484993      20.61538806      20.64756292      20.68146781      20.71720101      20.75486589      20.79457101      20.83643028      20.88056300      20.92709393      20.97615324      21.02787649      21.08240452      21.13988321      21.20046324      21.26429970      21.33155160      21.40238125      21.47695350      21.55543481      21.63799217      21.72479179      21.81599759      21.91176952      22.01226157      22.11761959      22.22797885      22.34346135      22.46417293      22.59020017      22.72160702      22.85843144      23.00068181      23.14833342      23.30132496      23.45955522      23.62287998      23.79110937      23.96400567      24.14128177      24.32260037      24.50757412      24.69576663      24.88669465      25.07983130      25.27461043      25.47043208      25.66666897      25.86267387      26.05778780      26.25134867      26.44270028      26.63120143      26.81623477      26.99721524      27.17359776      27.34488404      27.51062829      27.67044172      27.82399569      27.97102354      28.11132115      28.24474616      28.37121617      28.49070581      28.60324304      28.70890480      28.80781210      28.90012484      28.98603645      29.06576852      29.13956553      29.20768985      29.27041697      29.32803112      29.38082134      29.42907795      29.47308941      29.51313971      29.54950612      29.58245734      29.61225208      29.63913787      29.66335031
    INTERNAL  FACTOR  1.0
          18.26211214      18.26720746      18.27251925      18.27805845      18.28383660      18.28986595      18.29615940      18.30273064      18.30959412      18.31676515      18.32425993      18.33209563      18.34029038      18.34886344      18.35783518      18.36722718      18.37706231      18.38736480      18.39816036      18.40947618      18.42134115      18.43378584      18.44684269      18.46054607      18.47493243      18.49004040      18.50591093      18.52258741      18.54011582      18.55854490      18.57792623      18.59831448      18.61976746      18.64234641      18.66611603      18.69114478      18.71750493      18.74527282      18.77452894      18.80535817      18.83784985      18.87209798      18.90820126      18.94626329      18.98639254      19.02870243      19.07331134      19.12034255      19.16992409      19.22218863      19.27727317      19.33531874      19.39646991      19.46087429      19.52868175      19.60004367      19.67511188      19.75403750      19.83696961      19.92405364      20.01542960      20.11123012      20.21157818      20.31658474      20.42634604      20.54094077      20.66042711      20.78483957      20.91418576      21.04844322      21.18755621      21.33143268      21.47994152      21.63291006      21.79012215      21.95131673      22.11618710      22.28438104      22.45550175      22.62910983      22.80472618      22.98183602      23.15989380      23.33832914      23.51655356      23.69396782      23.86996990      24.04396314      24.21536450      24.38361263      24.54817554      24.70855760      24.86430572      25.01501456      25.16033059      25.29995498      25.43364527      25.56121585      25.68253728      25.79753462      25.90618481      26.00851328      26.10458998      26.19452495      26.27846359      26.35658177      26.42908098      26.49618353      26.55812798      26.61516484      26.66755255      26.71555393      26.75943297      26.79945195      26.83586910      26.86893655      26.89889861      26.92599054      26.95043740      26.97245341
    INTERNAL  FACTOR  1.0
          16.08961632      16.09410549      16.09878538      16.10366562      16.10875640      16.11406848      16.11961325      16.12540276      16.13144975      16.13776770      16.14437089      16.15127444      16.15849433      16.16604752      16.17395196      16.18222667      16.19089179      16.19996869      16.20947998      16.21944965      16.22990314      16.24086739      16.25237097      16.26444417      16.27711910      16.29042980      16.30441234      16.31910495      16.33454815      16.35078487      16.36786056      16.38582338      16.40472428      16.42461719      16.44555914      16.46761041      16.49083471      16.51529928      16.54107504      16.56823676      16.59686317      16.62703707      16.65884544      16.69237954      16.72773493      16.76501156      16.80431371      16.84575000      16.88943322      16.93548027      16.98401185      17.03515220      17.08902872      17.14577143      17.20551238      17.26838495      17.33452290      17.40405939      17.47712573      17.55385008      17.63435578      17.71875968      17.80717015      17.89968493      17.99638881      18.09735113      18.20262315      18.31223526      18.42619419      18.54448012      18.66704396      18.79380462      18.92464655      19.05941766      19.19792751      19.33994607      19.48520315      19.63338841      19.78415228      19.93710761      20.09183230      20.24787281      20.40474849      20.56195683      20.71897933      20.87528805      21.03035258      21.18364725      21.33465838      21.48289139      21.62787758      21.76918029      21.90640031      22.03918054      22.16720950      22.29022390      22.40801014      22.52040468      22.62729348      22.72861052      22.82433547      22.91449075      22.99913798      23.07837412      23.15232725      23.22115234      23.28502691      23.34414681      23.39872224      23.44897388      23.49512944      23.53742049      23.57607959      23.61133784      23.64342274      23.67255642      23.69895414      23.72282316      23.74436177      23.76375872
    INTERNAL  FACTOR  1.0
          13.78063084      13.78447578      13.78848407      13.79266396      13.79702417      13.80157393      13.80632298      13.81128165      13.81646085      13.82187213      13.82752771      13.83344054      13.83962432      13.84609357      13.85286366      13.85995089      13.86737250      13.87514678      13.88329313      13.89183208      13.90078541      13.91017620      13.92002893      13.93036953      13.94122551      13.95262602      13.96460196      13.97718606      13.99041305      14.00431967      14.01894487      14.03432988      14.05051835      14.06755647      14.08549309      14.10437984      14.12427127      14.14522497      14.16730171      14.19056552      14.21508381      14.24092752      14.26817115      14.29689284      14.32717446      14.35910160      14.39276358      14.42825344      14.46566778      14.50510672      14.54667364      14.59047495      14.63661977      14.68521945      14.73638711      14.79023698      14.84688362      14.90644107      14.96902183      15.03473563      15.10368814      15.17597942      15.25170230      15.33094048      15.41376660      15.50024004      15.59040471      15.68428662      15.78189155      15.88320254      15.98817751      16.09674702      16.20881212      16.32424252      16.44287512      16.56451291      16.68892447      16.81584399      16.94497206      17.07597711      17.20849760      17.34214508      17.47650788      17.61115560      17.74564414      17.87952134      18.01233290      18.14362859      18.27296844      18.39992886      18.52410840      18.64513307      18.76266095      18.87638618      18.98604198      19.09140286      19.19228585      19.28855090      19.38010032      19.46687757      19.54886525      19.62608254      19.69858224      19.76644737      19.82978765      19.88873580      19.94344387      19.99407961      20.04082303      20.08386317      20.12339505      20.15961701      20.19272822      20.22292664      20.25040710      20.27535987      20.29796932      20.31841294      20.33686060      20.35347393
    INTERNAL  FACTOR  1.0
          11.60813502      11.61137381      11.61475020      11.61827114      11.62194397      11.62577646      11.62977683      11.63395378      11.63831648      11.64287468      11.64763867      11.65261935      11.65782827      11.66327765      11.66898045      11.67495038      11.68120198      11.68775067      11.69461275      11.70180555      11.70934740      11.71725775      11.72555721      11.73426763      11.74341218      11.75301542      11.76310336      11.77370361      11.78484538      11.79655964      11.80887920      11.82183879      11.83547517      11.84982726      11.86493619      11.88084547      11.89760105      11.91525143      11.93384781      11.95344411      11.97409713      11.99586662      12.01881533      12.04300909      12.06851685      12.09541073      12.12376595      12.15366088      12.18517691      12.21839836      12.25341232      12.29030842      12.32917857      12.37011659      12.41321775      12.45857826      12.50629464      12.55646295      12.60917795      12.66453207      12.72261431      12.78350899      12.84729426      12.91404067      12.98380937      13.05665041      13.13260075      13.21168232      13.29389998      13.37923944      13.46766526      13.55911895      13.65351715      13.75075013      13.85068048      13.95314225      14.05794051      14.16485136      14.27362259      14.38397488      14.49560372      14.60818187      14.72136258      14.83478328      14.94806991      15.06084157      15.17271559      15.28331271      15.39226232      15.49920762      15.60381045      15.70575575      15.80475554      15.90055216      15.99292089      16.08167178      16.16665072      16.24773973      16.32485652      16.39795347      16.46701591      16.53206001      16.59313024      16.65029653      16.70365132      16.75330638      16.79938980      16.84204289      16.88141729      16.91767221      16.95097195      16.98148357      17.00937485      17.03481253      17.05796074      17.07897974      17.09802484      17.11524556      17.13078497      17.14477924
    INTERNAL  FACTOR  1.0
           9.78622212       9.78895258       9.79179904       9.79476736       9.79786373       9.80109471       9.80446722       9.80798859       9.81166656       9.81550934       9.81952561       9.82372457       9.82811594       9.83271004       9.83751777       9.84255072       9.84782112       9.85334198       9.85912705       9.86519093       9.87154908       9.87821789       9.88521473       9.89255804       9.90026734       9.90836334       9.91686797       9.92580449       9.93519754       9.94507323       9.95545922       9.96638478       9.97788092       9.98998042      10.00271799      10.01613029      10.03025605      10.04513619      10.06081383      10.07733447      10.09474597      10.11309871      10.13244558      10.15284210      10.17434638      10.19701923      10.22092406      10.24612694      10.27269649      10.30070378      10.33022225      10.36132746      10.39409689      10.42860962      10.46494600      10.50318711      10.54341434      10.58570867      10.63014997      10.67681619      10.72578234      10.77711951      10.83089360      10.88716406      10.94598247      11.00739101      11.07142084      11.13809045      11.20740393      11.27934924      11.35389651      11.43099642      11.51057869      11.59255081      11.67679696      11.76317721      11.85152724      11.94165828      12.03335772      12.12639007      12.22049860      12.31540746      12.41082429      12.50644346      12.60194959      12.69702158      12.79133682      12.88457557      12.97642539      13.06658548      13.15477075      13.24071559      13.32417723      13.40493843      13.48280976      13.55763108      13.62927246      13.69763443      13.76264764      13.82427192      13.88249491      13.93733025      13.98881542      14.03700939      14.08199006      14.12385170      14.16270226      14.19866089      14.23185542      14.26242008      14.29049338      14.31621616      14.33972986      14.36117506      14.38069013      14.39841017      14.41446612      14.42898402      14.44208450      14.45388235
    INTERNAL  FACTOR  1.0
           8.40006695       8.40241066       8.40485394       8.40740181       8.41005961       8.41283294       8.41572775       8.41875034       8.42190735       8.42520583       8.42865322       8.43225742       8.43602678       8.43997016       8.44409691       8.44841697       8.45294085       8.45767972       8.46264537       8.46785034       8.47330790       8.47903211       8.48503790       8.49134108       8.49795841       8.50490765       8.51220766       8.51987838       8.52794097       8.53641783       8.54533271       8.55471074       8.56457852       8.57496421       8.58589758       8.59741011       8.60953505       8.62230751       8.63576452       8.64994512       8.66489039       8.68064358       8.69725010       8.71475758       8.73321592       8.75267730       8.77319617       8.79482923       8.81763537       8.84167561       8.86701297       8.89371233       8.92184018       8.95146441       8.98265397       9.01547848       9.05000779       9.08631139       9.12445787       9.16451412       9.20654454       9.25061013       9.29676746       9.34506758       9.39555474       9.44826515       9.50322557       9.56045186       9.61994753       9.68170226       9.74569039       9.81186959       9.88017955       9.95054085      10.02285407      10.09699912      10.17283494      10.25019950      10.32891030      10.40876522      10.48954389      10.57100952      10.65291118      10.73498650      10.81696481      10.89857047      10.97952656      11.05955864      11.13839853      11.21578802      11.29148242      11.36525373      11.43689356      11.50621547      11.57305682      11.63728019      11.69877403      11.75745297      11.81325747      11.86615307      11.91612916      11.96319742      12.00739005      12.04875765      12.08736711      12.12329931      12.15664694      12.18751226      12.21600500      12.24224038      12.26633727      12.28841659      12.30859973      12.32700735      12.34375824      12.35896835      12.37275007      12.38521161      12.39645649      12.40658325
    INTERNAL  FACTOR  1.0