# File generated by Flopy version 3.9.5 on 04/21/2026 at 01:40:18.
BEGIN options
  auxiliary  CONCENTRATION
END options

BEGIN dimensions
  MAXBOUND  80
END dimensions

BEGIN period  1
  1 1 1 0.00000000E+00 3.50000000E+01
  1 1 120 2.00000000E+00 0.00000000E+00
  2 1 1 0.00000000E+00 3.50000000E+01
  2 1 120 2.00000000E+00 0.00000000E+00
  3 1 1 0.00000000E+00 3.50000000E+01
  3 1 120 2.00000000E+00 0.00000000E+00
  4 1 1 0.00000000E+00 3.50000000E+01
  4 1 120 2.00000000E+00 0.00000000E+00
  5 1 1 0.00000000E+00 3.50000000E+01
  5 1 120 2.00000000E+00 0.00000000E+00
  6 1 1 0.00000000E+00 3.50000000E+01
  6 1 120 2.00000000E+00 0.00000000E+00
  7 1 1 0.00000000E+00 3.50000000E+01
  7 1 120 2.00000000E+00 0.00000000E+00
  8 1 1 0.00000000E+00 3.50000000E+01
  8 1 120 2.00000000E+00 0.00000000E+00
  9 1 1 0.00000000E+00 3.50000000E+01
  9 1 120 2.00000000E+00 0.00000000E+00
  10 1 1 0.00000000E+00 3.50000000E+01
  10 1 120 2.00000000E+00 0.00000000E+00
  11 1 1 0.00000000E+00 3.50000000E+01
  11 1 120 2.00000000E+00 0.00000000E+00
  12 1 1 0.00000000E+00 3.50000000E+01
  12 1 120 2.00000000E+00 0.00000000E+00
  13 1 1 0.00000000E+00 3.50000000E+01
  13 1 120 2.00000000E+00 0.00000000E+00
  14 1 1 0.00000000E+00 3.50000000E+01
  14 1 120 2.00000000E+00 0.00000000E+00
  15 1 1 0.00000000E+00 3.50000000E+01
  15 1 120 2.00000000E+00 0.00000000E+00
  16 1 1 0.00000000E+00 3.50000000E+01
  16 1 120 2.00000000E+00 0.00000000E+00
  17 1 1 0.00000000E+00 3.50000000E+01
  17 1 120 2.00000000E+00 0.00000000E+00
  18 1 1 0.00000000E+00 3.50000000E+01
  18 1 120 2.00000000E+00 0.00000000E+00
  19 1 1 0.00000000E+00 3.50000000E+01
  19 1 120 2.00000000E+00 0.00000000E+00
  20 1 1 0.00000000E+00 3.50000000E+01
  20 1 120 2.00000000E+00 0.00000000E+00
  21 1 1 0.00000000E+00 3.50000000E+01
  21 1 120 2.00000000E+00 0.00000000E+00
  22 1 1 0.00000000E+00 3.50000000E+01
  22 1 120 2.00000000E+00 0.00000000E+00
  23 1 1 0.00000000E+00 3.50000000E+01
  23 1 120 2.00000000E+00 0.00000000E+00
  24 1 1 0.00000000E+00 3.50000000E+01
  24 1 120 2.00000000E+00 0.00000000E+00
  25 1 1 0.00000000E+00 3.50000000E+01
  25 1 120 2.00000000E+00 0.00000000E+00
  26 1 1 0.00000000E+00 3.50000000E+01
  26 1 120 2.00000000E+00 0.00000000E+00
  27 1 1 0.00000000E+00 3.50000000E+01
  27 1 120 2.00000000E+00 0.00000000E+00
  28 1 1 0.00000000E+00 3.50000000E+01
  28 1 120 2.00000000E+00 0.00000000E+00
  29 1 1 0.00000000E+00 3.50000000E+01
  29 1 120 2.00000000E+00 0.00000000E+00
  30 1 1 0.00000000E+00 3.50000000E+01
  30 1 120 2.00000000E+00 0.00000000E+00
  31 1 1 0.00000000E+00 3.50000000E+01
  31 1 120 2.00000000E+00 0.00000000E+00
  32 1 1 0.00000000E+00 3.50000000E+01
  32 1 120 2.00000000E+00 0.00000000E+00
  33 1 1 0.00000000E+00 3.50000000E+01
  33 1 120 2.00000000E+00 0.00000000E+00
  34 1 1 0.00000000E+00 3.50000000E+01
  34 1 120 2.00000000E+00 0.00000000E+00
  35 1 1 0.00000000E+00 3.50000000E+01
  35 1 120 2.00000000E+00 0.00000000E+00
  36 1 1 0.00000000E+00 3.50000000E+01
  36 1 120 2.00000000E+00 0.00000000E+00
  37 1 1 0.00000000E+00 3.50000000E+01
  37 1 120 2.00000000E+00 0.00000000E+00
  38 1 1 0.00000000E+00 3.50000000E+01
  38 1 120 2.00000000E+00 0.00000000E+00
  39 1 1 0.00000000E+00 3.50000000E+01
  39 1 120 2.00000000E+00 0.00000000E+00
  40 1 1 0.00000000E+00 3.50000000E+01
  40 1 120 2.00000000E+00 0.00000000E+00
END period  1

