# File generated by Flopy version 3.9.5 on 04/21/2026 at 01:40:18.
BEGIN options
  LENGTH_UNITS  meters
END options

BEGIN dimensions
  NLAY  40
  NROW  1
  NCOL  120
END dimensions

BEGIN griddata
  delr
    INTERNAL  FACTOR  1.0
         5.76869878       5.83629439       5.90468206       5.97387107       6.04387082       6.11469079       6.18634062       6.25883001       6.33216880       6.40636695       6.48143454       6.55738173       6.63421885       6.71195633       6.79060470       6.87017464       6.95067696       7.03212258       7.11452255       7.19788805       7.28223040       7.36756105       7.45389157       7.54123368       7.62959924       7.71900023       7.80944879       7.90095720       7.99353787       8.08720337       8.18196641       8.27783985       8.37483670       8.47297012       8.57225344       8.67270013       8.77432382       8.87713829       8.98115752       9.08639560       9.19286683       9.30058564       9.40956668       9.51982471       9.63137471       9.74423181       9.85841133       9.97392877      10.09079980      10.20904029      10.32866627      10.44969399      10.57213988      10.69602054      10.82135279      10.94815364      11.07644030      11.20623018      11.33754089      11.47039026      11.60479630      11.74077728      11.87835162      12.01753802      12.15835536      12.30082274      12.44495950      12.59078522      12.73831966      12.88758287      13.03859508      13.19137681      13.34594878      13.50233197      13.66054760      13.82061715      13.98256234      14.14640515      14.31216781      14.47987282      14.64954294      14.82120119      14.99487088      15.17057556      15.34833910      15.52818560      15.71013948      15.89422544      16.08046845      16.26889379      16.45952703      16.65239405      16.84752102      17.04493442      17.24466104      17.44672798      17.65116268      17.85799287      18.06724662      18.27895234      18.49313875      18.70983493      18.92907027      19.15087454      19.37527783      19.60231060      19.83200367      20.06438820      20.29949573      20.53735816      20.77800779      21.02147726      21.26779963      21.51700832      21.76913714      22.02422033      22.28229249      22.54338865      22.80754424      23.07479512
  delc
    CONSTANT       1.00000000
  top
    CONSTANT       0.00000000
  botm  LAYERED
    CONSTANT      -1.00000000
    CONSTANT      -2.00000000
    CONSTANT      -3.00000000
    CONSTANT      -4.00000000
    CONSTANT      -5.00000000
    CONSTANT      -6.00000000
    CONSTANT      -7.00000000
    CONSTANT      -8.00000000
    CONSTANT      -9.00000000
    CONSTANT     -10.00000000
    CONSTANT     -11.00000000
    CONSTANT     -12.00000000
    CONSTANT     -13.00000000
    CONSTANT     -14.00000000
    CONSTANT     -15.00000000
    CONSTANT     -16.00000000
    CONSTANT     -17.00000000
    CONSTANT     -18.00000000
    CONSTANT     -19.00000000
    CONSTANT     -20.00000000
    CONSTANT     -21.00000000
    CONSTANT     -22.00000000
    CONSTANT     -23.00000000
    CONSTANT     -24.00000000
    CONSTANT     -25.00000000
    CONSTANT     -26.00000000
    CONSTANT     -27.00000000
    CONSTANT     -28.00000000
    CONSTANT     -29.00000000
    CONSTANT     -30.00000000
    CONSTANT     -31.00000000
    CONSTANT     -32.00000000
    CONSTANT     -33.00000000
    CONSTANT     -34.00000000
    CONSTANT     -35.00000000
    CONSTANT     -36.00000000
    CONSTANT     -37.00000000
    CONSTANT     -38.00000000
    CONSTANT     -39.00000000
    CONSTANT     -40.00000000
  idomain
    CONSTANT  1
END griddata

