# File generated by Flopy version 3.9.5 on 04/21/2026 at 01:40:18.
BEGIN options
END options

BEGIN griddata
  strt
    CONSTANT       0.00000000
END griddata

