# File generated by Flopy version 3.9.5 on 04/21/2026 at 01:40:18.
BEGIN options
  SCHEME  tvd
END options

