# File generated by Flopy version 3.9.5 on 04/21/2026 at 01:40:18.
BEGIN options
END options

BEGIN griddata
  porosity
    CONSTANT       0.30000000
END griddata

