# File generated by Flopy version 3.9.5 on 05/11/2026 at 06:02:24.
BEGIN options
  PRINT_OPTION  summary
  COMPLEXITY  moderate
END options

BEGIN nonlinear
  OUTER_DVCLOSE  1.00000000E-05
  OUTER_MAXIMUM  500
END nonlinear

BEGIN linear
  INNER_MAXIMUM  200
  INNER_DVCLOSE  1.00000000E-06
  inner_rclose  1.00000000E-04
  LINEAR_ACCELERATION  bicgstab
  RELAXATION_FACTOR       0.98000000
END linear

