# File generated by Flopy version 3.9.5 on 05/11/2026 at 06:02:24.
BEGIN options
  SAVE_FLOWS
END options

BEGIN packages
  DIS6  gwf_sens.dis  dis
  NPF6  gwf_sens.npf  npf
  IC6  gwf_sens.ic  ic
  STO6  gwf_sens.sto  sto
  CHD6  gwf_sens.chd  chd
  GHB6  gwf_sens.ghb  ghb
  RCH6  gwf_sens.rcha  rch
  WEL6  gwf_sens.wel  wel
  BUY6  gwf_sens.buy  buy
  OC6  gwf_sens.oc  oc
END packages

