# File generated by Flopy version 3.9.5 on 05/11/2026 at 06:02:25.
BEGIN options
END options

BEGIN griddata
  strt
    CONSTANT       1.95975000
END griddata

