# File generated by Flopy version 3.9.5 on 05/11/2026 at 06:02:25.
BEGIN options
  READASARRAYS
END options

BEGIN period  1
  recharge
    INTERNAL  FACTOR  1.0
    2.54237288E-07  2.54237288E-07  2.54237288E-07  2.54237288E-07  2.54237288E-07  2.54237288E-07  2.54237288E-07  2.54237288E-07  2.54237288E-07  2.54237288E-07  2.54237288E-07  2.54237288E-07  2.54237288E-07  2.54237288E-07  2.54237288E-07  2.54237288E-07  2.54237288E-07  2.54237288E-07  2.54237288E-07  2.54237288E-07  2.54237288E-07  2.54237288E-07  2.54237288E-07  2.54237288E-07  2.54237288E-07  2.54237288E-07  2.54237288E-07  2.54237288E-07  2.54237288E-07  2.54237288E-07  2.54237288E-07  2.54237288E-07  2.54237288E-07  2.54237288E-07  2.54237288E-07  2.54237288E-07  2.54237288E-07  2.54237288E-07  2.54237288E-07  2.54237288E-07  2.54237288E-07  2.54237288E-07  2.54237288E-07  2.54237288E-07  2.54237288E-07  2.54237288E-07  2.54237288E-07  2.54237288E-07  2.54237288E-07  2.54237288E-07  2.54237288E-07  2.54237288E-07  2.54237288E-07  2.54237288E-07  2.54237288E-07  2.54237288E-07  2.54237288E-07  2.54237288E-07  2.54237288E-07  2.54237288E-07  2.54237288E-07  2.54237288E-07  2.54237288E-07  2.54237288E-07  2.54237288E-07  2.54237288E-07  2.54237288E-07  2.54237288E-07  2.54237288E-07  2.54237288E-07  2.54237288E-07  2.54237288E-07  2.54237288E-07  2.54237288E-07  2.54237288E-07  2.54237288E-07  2.54237288E-07  2.54237288E-07  2.54237288E-07  2.54237288E-07  2.54237288E-07  2.54237288E-07  2.54237288E-07  2.54237288E-07  2.54237288E-07  2.54237288E-07  2.54237288E-07  2.54237288E-07  2.54237288E-07  2.54237288E-07  2.54237288E-07  2.54237288E-07  2.54237288E-07  2.54237288E-07  2.54237288E-07  2.54237288E-07  2.54237288E-07  2.54237288E-07  2.54237288E-07  2.54237288E-07  2.54237288E-07  2.54237288E-07  2.54237288E-07  2.54237288E-07  2.54237288E-07  2.54237288E-07  2.54237288E-07  2.54237288E-07  2.54237288E-07  2.54237288E-07  2.54237288E-07  2.54237288E-07  2.54237288E-07  2.54237288E-07  2.54237288E-07  2.54237288E-07  2.54237288E-07  2.54237288E-07  2.54237288E-07  2.54237288E-07
END period  1

BEGIN period  2
  recharge
    INTERNAL  FACTOR  1.0
    3.07336957E-04  3.07336957E-04  3.07336957E-04  3.07336957E-04  3.07336957E-04  3.07336957E-04  3.07336957E-04  3.07336957E-04  3.07336957E-04  3.07336957E-04  3.07336957E-04  3.07336957E-04  3.07336957E-04  3.07336957E-04  3.07336957E-04  3.07336957E-04  3.07336957E-04  3.07336957E-04  3.07336957E-04  3.07336957E-04  3.07336957E-04  3.07336957E-04  3.07336957E-04  3.07336957E-04  3.07336957E-04  3.07336957E-04  3.07336957E-04  3.07336957E-04  3.07336957E-04  3.07336957E-04  3.07336957E-04  3.07336957E-04  3.07336957E-04  3.07336957E-04  3.07336957E-04  3.07336957E-04  3.07336957E-04  3.07336957E-04  3.07336957E-04  3.07336957E-04  3.07336957E-04  3.07336957E-04  3.07336957E-04  3.07336957E-04  3.07336957E-04  3.07336957E-04  3.07336957E-04  3.07336957E-04  3.07336957E-04  3.07336957E-04  3.07336957E-04  3.07336957E-04  3.07336957E-04  3.07336957E-04  3.07336957E-04  3.07336957E-04  3.07336957E-04  3.07336957E-04  3.07336957E-04  3.07336957E-04  3.07336957E-04  3.07336957E-04  3.07336957E-04  3.07336957E-04  3.07336957E-04  3.07336957E-04  3.07336957E-04  3.07336957E-04  3.07336957E-04  3.07336957E-04  3.07336957E-04  3.07336957E-04  3.07336957E-04  3.07336957E-04  3.07336957E-04  3.07336957E-04  3.07336957E-04  3.07336957E-04  3.07336957E-04  3.07336957E-04  3.07336957E-04  3.07336957E-04  3.07336957E-04  3.07336957E-04  3.07336957E-04  3.07336957E-04  3.07336957E-04  3.07336957E-04  3.07336957E-04  3.07336957E-04  3.07336957E-04  3.07336957E-04  3.07336957E-04  3.07336957E-04  3.07336957E-04  3.07336957E-04  3.07336957E-04  3.07336957E-04  3.07336957E-04  3.07336957E-04  3.07336957E-04  3.07336957E-04  3.07336957E-04  3.07336957E-04  3.07336957E-04  3.07336957E-04  3.07336957E-04  3.07336957E-04  3.07336957E-04  3.07336957E-04  3.07336957E-04  3.07336957E-04  3.07336957E-04  3.07336957E-04  3.07336957E-04  3.07336957E-04  3.07336957E-04  3.07336957E-04  3.07336957E-04  3.07336957E-04
END period  2

BEGIN period  3
  recharge
    INTERNAL  FACTOR  1.0
         0.00316586       0.00316586       0.00316586       0.00316586       0.00316586       0.00316586       0.00316586       0.00316586       0.00316586       0.00316586       0.00316586       0.00316586       0.00316586       0.00316586       0.00316586       0.00316586       0.00316586       0.00316586       0.00316586       0.00316586       0.00316586       0.00316586       0.00316586       0.00316586       0.00316586       0.00316586       0.00316586       0.00316586       0.00316586       0.00316586       0.00316586       0.00316586       0.00316586       0.00316586       0.00316586       0.00316586       0.00316586       0.00316586       0.00316586       0.00316586       0.00316586       0.00316586       0.00316586       0.00316586       0.00316586       0.00316586       0.00316586       0.00316586       0.00316586       0.00316586       0.00316586       0.00316586       0.00316586       0.00316586       0.00316586       0.00316586       0.00316586       0.00316586       0.00316586       0.00316586       0.00316586       0.00316586       0.00316586       0.00316586       0.00316586       0.00316586       0.00316586       0.00316586       0.00316586       0.00316586       0.00316586       0.00316586       0.00316586       0.00316586       0.00316586       0.00316586       0.00316586       0.00316586       0.00316586       0.00316586       0.00316586       0.00316586       0.00316586       0.00316586       0.00316586       0.00316586       0.00316586       0.00316586       0.00316586       0.00316586       0.00316586       0.00316586       0.00316586       0.00316586       0.00316586       0.00316586       0.00316586       0.00316586       0.00316586       0.00316586       0.00316586       0.00316586       0.00316586       0.00316586       0.00316586       0.00316586       0.00316586       0.00316586       0.00316586       0.00316586       0.00316586       0.00316586       0.00316586       0.00316586       0.00316586       0.00316586       0.00316586       0.00316586       0.00316586       0.00316586
END period  3

BEGIN period  4
  recharge
    INTERNAL  FACTOR  1.0
    7.11684783E-04  7.11684783E-04  7.11684783E-04  7.11684783E-04  7.11684783E-04  7.11684783E-04  7.11684783E-04  7.11684783E-04  7.11684783E-04  7.11684783E-04  7.11684783E-04  7.11684783E-04  7.11684783E-04  7.11684783E-04  7.11684783E-04  7.11684783E-04  7.11684783E-04  7.11684783E-04  7.11684783E-04  7.11684783E-04  7.11684783E-04  7.11684783E-04  7.11684783E-04  7.11684783E-04  7.11684783E-04  7.11684783E-04  7.11684783E-04  7.11684783E-04  7.11684783E-04  7.11684783E-04  7.11684783E-04  7.11684783E-04  7.11684783E-04  7.11684783E-04  7.11684783E-04  7.11684783E-04  7.11684783E-04  7.11684783E-04  7.11684783E-04  7.11684783E-04  7.11684783E-04  7.11684783E-04  7.11684783E-04  7.11684783E-04  7.11684783E-04  7.11684783E-04  7.11684783E-04  7.11684783E-04  7.11684783E-04  7.11684783E-04  7.11684783E-04  7.11684783E-04  7.11684783E-04  7.11684783E-04  7.11684783E-04  7.11684783E-04  7.11684783E-04  7.11684783E-04  7.11684783E-04  7.11684783E-04  7.11684783E-04  7.11684783E-04  7.11684783E-04  7.11684783E-04  7.11684783E-04  7.11684783E-04  7.11684783E-04  7.11684783E-04  7.11684783E-04  7.11684783E-04  7.11684783E-04  7.11684783E-04  7.11684783E-04  7.11684783E-04  7.11684783E-04  7.11684783E-04  7.11684783E-04  7.11684783E-04  7.11684783E-04  7.11684783E-04  7.11684783E-04  7.11684783E-04  7.11684783E-04  7.11684783E-04  7.11684783E-04  7.11684783E-04  7.11684783E-04  7.11684783E-04  7.11684783E-04  7.11684783E-04  7.11684783E-04  7.11684783E-04  7.11684783E-04  7.11684783E-04  7.11684783E-04  7.11684783E-04  7.11684783E-04  7.11684783E-04  7.11684783E-04  7.11684783E-04  7.11684783E-04  7.11684783E-04  7.11684783E-04  7.11684783E-04  7.11684783E-04  7.11684783E-04  7.11684783E-04  7.11684783E-04  7.11684783E-04  7.11684783E-04  7.11684783E-04  7.11684783E-04  7.11684783E-04  7.11684783E-04  7.11684783E-04  7.11684783E-04  7.11684783E-04  7.11684783E-04  7.11684783E-04  7.11684783E-04
END period  4

