# File generated by Flopy version 3.9.5 on 05/11/2026 at 06:02:25.
BEGIN options
  auxiliary  CONCENTRATION
END options

BEGIN dimensions
  MAXBOUND  65
END dimensions

BEGIN period  1
  4 1 23 -2.87579814E-02 0.00000000E+00
  5 1 23 -2.87579814E-02 0.00000000E+00
  6 1 23 -2.87579814E-02 0.00000000E+00
  7 1 23 -2.87579814E-02 0.00000000E+00
  8 1 23 -2.87579814E-02 0.00000000E+00
  6 1 36 -4.10828306E-02 0.00000000E+00
  7 1 36 -4.10828306E-02 0.00000000E+00
  8 1 36 -4.10828306E-02 0.00000000E+00
  9 1 36 -4.10828306E-02 0.00000000E+00
  10 1 36 -4.10828306E-02 0.00000000E+00
  11 1 36 -4.10828306E-02 0.00000000E+00
  12 1 36 -4.10828306E-02 0.00000000E+00
  13 1 61 -3.66523293E-02 0.00000000E+00
  14 1 61 -3.66523293E-02 0.00000000E+00
  15 1 61 -3.66523293E-02 0.00000000E+00
  16 1 61 -3.66523293E-02 0.00000000E+00
  17 1 61 -3.66523293E-02 0.00000000E+00
  18 1 61 -3.66523293E-02 0.00000000E+00
  19 1 61 -3.66523293E-02 0.00000000E+00
  20 1 61 -3.66523293E-02 0.00000000E+00
  21 1 61 -3.66523293E-02 0.00000000E+00
  22 1 61 -3.66523293E-02 0.00000000E+00
  23 1 61 -3.66523293E-02 0.00000000E+00
  24 1 61 -3.66523293E-02 0.00000000E+00
  25 1 61 -3.66523293E-02 0.00000000E+00
  26 1 61 -3.66523293E-02 0.00000000E+00
  27 1 61 -3.66523293E-02 0.00000000E+00
  28 1 61 -3.66523293E-02 0.00000000E+00
  29 1 61 -3.66523293E-02 0.00000000E+00
  15 1 80 -4.03620792E-02 0.00000000E+00
  16 1 80 -4.03620792E-02 0.00000000E+00
  17 1 80 -4.03620792E-02 0.00000000E+00
  18 1 80 -4.03620792E-02 0.00000000E+00
  19 1 80 -4.03620792E-02 0.00000000E+00
  20 1 80 -4.03620792E-02 0.00000000E+00
  21 1 80 -4.03620792E-02 0.00000000E+00
  22 1 80 -4.03620792E-02 0.00000000E+00
  23 1 80 -4.03620792E-02 0.00000000E+00
  24 1 80 -4.03620792E-02 0.00000000E+00
  25 1 80 -4.03620792E-02 0.00000000E+00
  26 1 80 -4.03620792E-02 0.00000000E+00
  27 1 80 -4.03620792E-02 0.00000000E+00
  28 1 80 -4.03620792E-02 0.00000000E+00
  29 1 80 -4.03620792E-02 0.00000000E+00
  30 1 80 -4.03620792E-02 0.00000000E+00
  31 1 80 -4.03620792E-02 0.00000000E+00
  32 1 80 -4.03620792E-02 0.00000000E+00
  33 1 80 -4.03620792E-02 0.00000000E+00
  13 1 96 -3.38329193E-02 0.00000000E+00
  14 1 96 -3.38329193E-02 0.00000000E+00
  15 1 96 -3.38329193E-02 0.00000000E+00
  16 1 96 -3.38329193E-02 0.00000000E+00
  17 1 96 -3.38329193E-02 0.00000000E+00
  18 1 96 -3.38329193E-02 0.00000000E+00
  19 1 96 -3.38329193E-02 0.00000000E+00
  20 1 96 -3.38329193E-02 0.00000000E+00
  21 1 96 -3.38329193E-02 0.00000000E+00
  22 1 96 -3.38329193E-02 0.00000000E+00
  23 1 96 -3.38329193E-02 0.00000000E+00
  24 1 96 -3.38329193E-02 0.00000000E+00
  25 1 96 -3.38329193E-02 0.00000000E+00
  26 1 96 -3.38329193E-02 0.00000000E+00
  27 1 96 -3.38329193E-02 0.00000000E+00
  28 1 96 -3.38329193E-02 0.00000000E+00
  29 1 96 -3.38329193E-02 0.00000000E+00
END period  1

BEGIN period  2
  4 1 23 -2.87579814E-02 0.00000000E+00
  5 1 23 -2.87579814E-02 0.00000000E+00
  6 1 23 -2.87579814E-02 0.00000000E+00
  7 1 23 -2.87579814E-02 0.00000000E+00
  8 1 23 -2.87579814E-02 0.00000000E+00
  6 1 36 -4.10828306E-02 0.00000000E+00
  7 1 36 -4.10828306E-02 0.00000000E+00
  8 1 36 -4.10828306E-02 0.00000000E+00
  9 1 36 -4.10828306E-02 0.00000000E+00
  10 1 36 -4.10828306E-02 0.00000000E+00
  11 1 36 -4.10828306E-02 0.00000000E+00
  12 1 36 -4.10828306E-02 0.00000000E+00
  13 1 61 -3.66523293E-02 0.00000000E+00
  14 1 61 -3.66523293E-02 0.00000000E+00
  15 1 61 -3.66523293E-02 0.00000000E+00
  16 1 61 -3.66523293E-02 0.00000000E+00
  17 1 61 -3.66523293E-02 0.00000000E+00
  18 1 61 -3.66523293E-02 0.00000000E+00
  19 1 61 -3.66523293E-02 0.00000000E+00
  20 1 61 -3.66523293E-02 0.00000000E+00
  21 1 61 -3.66523293E-02 0.00000000E+00
  22 1 61 -3.66523293E-02 0.00000000E+00
  23 1 61 -3.66523293E-02 0.00000000E+00
  24 1 61 -3.66523293E-02 0.00000000E+00
  25 1 61 -3.66523293E-02 0.00000000E+00
  26 1 61 -3.66523293E-02 0.00000000E+00
  27 1 61 -3.66523293E-02 0.00000000E+00
  28 1 61 -3.66523293E-02 0.00000000E+00
  29 1 61 -3.66523293E-02 0.00000000E+00
  15 1 80 -4.03620792E-02 0.00000000E+00
  16 1 80 -4.03620792E-02 0.00000000E+00
  17 1 80 -4.03620792E-02 0.00000000E+00
  18 1 80 -4.03620792E-02 0.00000000E+00
  19 1 80 -4.03620792E-02 0.00000000E+00
  20 1 80 -4.03620792E-02 0.00000000E+00
  21 1 80 -4.03620792E-02 0.00000000E+00
  22 1 80 -4.03620792E-02 0.00000000E+00
  23 1 80 -4.03620792E-02 0.00000000E+00
  24 1 80 -4.03620792E-02 0.00000000E+00
  25 1 80 -4.03620792E-02 0.00000000E+00
  26 1 80 -4.03620792E-02 0.00000000E+00
  27 1 80 -4.03620792E-02 0.00000000E+00
  28 1 80 -4.03620792E-02 0.00000000E+00
  29 1 80 -4.03620792E-02 0.00000000E+00
  30 1 80 -4.03620792E-02 0.00000000E+00
  31 1 80 -4.03620792E-02 0.00000000E+00
  32 1 80 -4.03620792E-02 0.00000000E+00
  33 1 80 -4.03620792E-02 0.00000000E+00
  13 1 96 -3.38329193E-02 0.00000000E+00
  14 1 96 -3.38329193E-02 0.00000000E+00
  15 1 96 -3.38329193E-02 0.00000000E+00
  16 1 96 -3.38329193E-02 0.00000000E+00
  17 1 96 -3.38329193E-02 0.00000000E+00
  18 1 96 -3.38329193E-02 0.00000000E+00
  19 1 96 -3.38329193E-02 0.00000000E+00
  20 1 96 -3.38329193E-02 0.00000000E+00
  21 1 96 -3.38329193E-02 0.00000000E+00
  22 1 96 -3.38329193E-02 0.00000000E+00
  23 1 96 -3.38329193E-02 0.00000000E+00
  24 1 96 -3.38329193E-02 0.00000000E+00
  25 1 96 -3.38329193E-02 0.00000000E+00
  26 1 96 -3.38329193E-02 0.00000000E+00
  27 1 96 -3.38329193E-02 0.00000000E+00
  28 1 96 -3.38329193E-02 0.00000000E+00
  29 1 96 -3.38329193E-02 0.00000000E+00
END period  2

BEGIN period  3
  4 1 23 -2.87579814E-02 0.00000000E+00
  5 1 23 -2.87579814E-02 0.00000000E+00
  6 1 23 -2.87579814E-02 0.00000000E+00
  7 1 23 -2.87579814E-02 0.00000000E+00
  8 1 23 -2.87579814E-02 0.00000000E+00
  6 1 36 -4.10828306E-02 0.00000000E+00
  7 1 36 -4.10828306E-02 0.00000000E+00
  8 1 36 -4.10828306E-02 0.00000000E+00
  9 1 36 -4.10828306E-02 0.00000000E+00
  10 1 36 -4.10828306E-02 0.00000000E+00
  11 1 36 -4.10828306E-02 0.00000000E+00
  12 1 36 -4.10828306E-02 0.00000000E+00
  13 1 61 -3.66523293E-02 0.00000000E+00
  14 1 61 -3.66523293E-02 0.00000000E+00
  15 1 61 -3.66523293E-02 0.00000000E+00
  16 1 61 -3.66523293E-02 0.00000000E+00
  17 1 61 -3.66523293E-02 0.00000000E+00
  18 1 61 -3.66523293E-02 0.00000000E+00
  19 1 61 -3.66523293E-02 0.00000000E+00
  20 1 61 -3.66523293E-02 0.00000000E+00
  21 1 61 -3.66523293E-02 0.00000000E+00
  22 1 61 -3.66523293E-02 0.00000000E+00
  23 1 61 -3.66523293E-02 0.00000000E+00
  24 1 61 -3.66523293E-02 0.00000000E+00
  25 1 61 -3.66523293E-02 0.00000000E+00
  26 1 61 -3.66523293E-02 0.00000000E+00
  27 1 61 -3.66523293E-02 0.00000000E+00
  28 1 61 -3.66523293E-02 0.00000000E+00
  29 1 61 -3.66523293E-02 0.00000000E+00
  15 1 80 -4.03620792E-02 0.00000000E+00
  16 1 80 -4.03620792E-02 0.00000000E+00
  17 1 80 -4.03620792E-02 0.00000000E+00
  18 1 80 -4.03620792E-02 0.00000000E+00
  19 1 80 -4.03620792E-02 0.00000000E+00
  20 1 80 -4.03620792E-02 0.00000000E+00
  21 1 80 -4.03620792E-02 0.00000000E+00
  22 1 80 -4.03620792E-02 0.00000000E+00
  23 1 80 -4.03620792E-02 0.00000000E+00
  24 1 80 -4.03620792E-02 0.00000000E+00
  25 1 80 -4.03620792E-02 0.00000000E+00
  26 1 80 -4.03620792E-02 0.00000000E+00
  27 1 80 -4.03620792E-02 0.00000000E+00
  28 1 80 -4.03620792E-02 0.00000000E+00
  29 1 80 -4.03620792E-02 0.00000000E+00
  30 1 80 -4.03620792E-02 0.00000000E+00
  31 1 80 -4.03620792E-02 0.00000000E+00
  32 1 80 -4.03620792E-02 0.00000000E+00
  33 1 80 -4.03620792E-02 0.00000000E+00
  13 1 96 -3.38329193E-02 0.00000000E+00
  14 1 96 -3.38329193E-02 0.00000000E+00
  15 1 96 -3.38329193E-02 0.00000000E+00
  16 1 96 -3.38329193E-02 0.00000000E+00
  17 1 96 -3.38329193E-02 0.00000000E+00
  18 1 96 -3.38329193E-02 0.00000000E+00
  19 1 96 -3.38329193E-02 0.00000000E+00
  20 1 96 -3.38329193E-02 0.00000000E+00
  21 1 96 -3.38329193E-02 0.00000000E+00
  22 1 96 -3.38329193E-02 0.00000000E+00
  23 1 96 -3.38329193E-02 0.00000000E+00
  24 1 96 -3.38329193E-02 0.00000000E+00
  25 1 96 -3.38329193E-02 0.00000000E+00
  26 1 96 -3.38329193E-02 0.00000000E+00
  27 1 96 -3.38329193E-02 0.00000000E+00
  28 1 96 -3.38329193E-02 0.00000000E+00
  29 1 96 -3.38329193E-02 0.00000000E+00
END period  3

BEGIN period  4
  4 1 23 -2.87579814E-02 0.00000000E+00
  5 1 23 -2.87579814E-02 0.00000000E+00
  6 1 23 -2.87579814E-02 0.00000000E+00
  7 1 23 -2.87579814E-02 0.00000000E+00
  8 1 23 -2.87579814E-02 0.00000000E+00
  6 1 36 -4.10828306E-02 0.00000000E+00
  7 1 36 -4.10828306E-02 0.00000000E+00
  8 1 36 -4.10828306E-02 0.00000000E+00
  9 1 36 -4.10828306E-02 0.00000000E+00
  10 1 36 -4.10828306E-02 0.00000000E+00
  11 1 36 -4.10828306E-02 0.00000000E+00
  12 1 36 -4.10828306E-02 0.00000000E+00
  13 1 61 -3.66523293E-02 0.00000000E+00
  14 1 61 -3.66523293E-02 0.00000000E+00
  15 1 61 -3.66523293E-02 0.00000000E+00
  16 1 61 -3.66523293E-02 0.00000000E+00
  17 1 61 -3.66523293E-02 0.00000000E+00
  18 1 61 -3.66523293E-02 0.00000000E+00
  19 1 61 -3.66523293E-02 0.00000000E+00
  20 1 61 -3.66523293E-02 0.00000000E+00
  21 1 61 -3.66523293E-02 0.00000000E+00
  22 1 61 -3.66523293E-02 0.00000000E+00
  23 1 61 -3.66523293E-02 0.00000000E+00
  24 1 61 -3.66523293E-02 0.00000000E+00
  25 1 61 -3.66523293E-02 0.00000000E+00
  26 1 61 -3.66523293E-02 0.00000000E+00
  27 1 61 -3.66523293E-02 0.00000000E+00
  28 1 61 -3.66523293E-02 0.00000000E+00
  29 1 61 -3.66523293E-02 0.00000000E+00
  15 1 80 -4.03620792E-02 0.00000000E+00
  16 1 80 -4.03620792E-02 0.00000000E+00
  17 1 80 -4.03620792E-02 0.00000000E+00
  18 1 80 -4.03620792E-02 0.00000000E+00
  19 1 80 -4.03620792E-02 0.00000000E+00
  20 1 80 -4.03620792E-02 0.00000000E+00
  21 1 80 -4.03620792E-02 0.00000000E+00
  22 1 80 -4.03620792E-02 0.00000000E+00
  23 1 80 -4.03620792E-02 0.00000000E+00
  24 1 80 -4.03620792E-02 0.00000000E+00
  25 1 80 -4.03620792E-02 0.00000000E+00
  26 1 80 -4.03620792E-02 0.00000000E+00
  27 1 80 -4.03620792E-02 0.00000000E+00
  28 1 80 -4.03620792E-02 0.00000000E+00
  29 1 80 -4.03620792E-02 0.00000000E+00
  30 1 80 -4.03620792E-02 0.00000000E+00
  31 1 80 -4.03620792E-02 0.00000000E+00
  32 1 80 -4.03620792E-02 0.00000000E+00
  33 1 80 -4.03620792E-02 0.00000000E+00
  13 1 96 -3.38329193E-02 0.00000000E+00
  14 1 96 -3.38329193E-02 0.00000000E+00
  15 1 96 -3.38329193E-02 0.00000000E+00
  16 1 96 -3.38329193E-02 0.00000000E+00
  17 1 96 -3.38329193E-02 0.00000000E+00
  18 1 96 -3.38329193E-02 0.00000000E+00
  19 1 96 -3.38329193E-02 0.00000000E+00
  20 1 96 -3.38329193E-02 0.00000000E+00
  21 1 96 -3.38329193E-02 0.00000000E+00
  22 1 96 -3.38329193E-02 0.00000000E+00
  23 1 96 -3.38329193E-02 0.00000000E+00
  24 1 96 -3.38329193E-02 0.00000000E+00
  25 1 96 -3.38329193E-02 0.00000000E+00
  26 1 96 -3.38329193E-02 0.00000000E+00
  27 1 96 -3.38329193E-02 0.00000000E+00
  28 1 96 -3.38329193E-02 0.00000000E+00
  29 1 96 -3.38329193E-02 0.00000000E+00
END period  4

