# File generated by Flopy version 3.9.5 on 05/11/2026 at 06:02:25.
BEGIN options
  SAVE_FLOWS
END options

BEGIN packages
  DIS6  gwt_sens.dis  dis
  IC6  gwt_sens.ic  ic
  ADV6  gwt_sens.adv  adv
  DSP6  gwt_sens.dsp  dsp
  MST6  gwt_sens.mst  mst
  CNC6  gwt_sens.cnc  cnc
  SSM6  gwt_sens.ssm  ssm
  OC6  gwt_sens.oc  oc
END packages

