# File generated by Flopy version 3.9.5 on 05/11/2026 at 06:02:25.
BEGIN options
END options

BEGIN griddata
  diffc
    CONSTANT       0.00000000
  alh
    CONSTANT      10.00000000
  ath1
    CONSTANT       1.00000000
  atv
    CONSTANT       1.00000000
END griddata

