# File generated by Flopy version 3.9.5 on 05/11/2026 at 06:02:24.
BEGIN options
END options

BEGIN timing
  TDIS6  gwf_sens.tdis
END timing

BEGIN models
  gwf6  gwf_sens.nam  gwf_sens
  gwt6  gwt_sens.nam  gwt_sens
END models

BEGIN exchanges
  GWF6-GWT6  gwf_sens_gwt_sens.exg  gwf_sens  gwt_sens
END exchanges

BEGIN solutiongroup  1
  ims6  gwf.ims  gwf_sens
  ims6  gwt.ims  gwt_sens
END solutiongroup  1

