# File generated by Flopy version 3.9.5 on 05/11/2026 at 05:38:25.
BEGIN options
  TIME_UNITS  days
END options

BEGIN dimensions
  NPER  1
END dimensions

BEGIN perioddata
  2.73937500E+05  50       1.20000000
END perioddata

