# File generated by Flopy version 3.9.5 on 05/11/2026 at 05:38:25.
BEGIN options
END options

BEGIN griddata
  iconvert
    CONSTANT  1
  ss
    CONSTANT  1.00000000E-05
  sy
    CONSTANT       0.20000000
END griddata

BEGIN period  1
  TRANSIENT
END period  1

