# File generated by Flopy version 3.9.5 on 05/11/2026 at 05:38:25.
BEGIN options
  auxiliary  CONCENTRATION
END options

BEGIN dimensions
  MAXBOUND  40
END dimensions

BEGIN period  1
  1 1 1 1.50000000E+00 3.50000000E+01
  2 1 1 1.50000000E+00 3.50000000E+01
  3 1 1 1.50000000E+00 3.50000000E+01
  4 1 1 1.50000000E+00 3.50000000E+01
  5 1 1 1.50000000E+00 3.50000000E+01
  6 1 1 1.50000000E+00 3.50000000E+01
  7 1 1 1.50000000E+00 3.50000000E+01
  8 1 1 1.50000000E+00 3.50000000E+01
  9 1 1 1.50000000E+00 3.50000000E+01
  10 1 1 1.50000000E+00 3.50000000E+01
  11 1 1 1.50000000E+00 3.50000000E+01
  12 1 1 1.50000000E+00 3.50000000E+01
  13 1 1 1.50000000E+00 3.50000000E+01
  14 1 1 1.50000000E+00 3.50000000E+01
  15 1 1 1.50000000E+00 3.50000000E+01
  16 1 1 1.50000000E+00 3.50000000E+01
  17 1 1 1.50000000E+00 3.50000000E+01
  18 1 1 1.50000000E+00 3.50000000E+01
  19 1 1 1.50000000E+00 3.50000000E+01
  20 1 1 1.50000000E+00 3.50000000E+01
  21 1 1 1.50000000E+00 3.50000000E+01
  22 1 1 1.50000000E+00 3.50000000E+01
  23 1 1 1.50000000E+00 3.50000000E+01
  24 1 1 1.50000000E+00 3.50000000E+01
  25 1 1 1.50000000E+00 3.50000000E+01
  26 1 1 1.50000000E+00 3.50000000E+01
  27 1 1 1.50000000E+00 3.50000000E+01
  28 1 1 1.50000000E+00 3.50000000E+01
  29 1 1 1.50000000E+00 3.50000000E+01
  30 1 1 1.50000000E+00 3.50000000E+01
  31 1 1 1.50000000E+00 3.50000000E+01
  32 1 1 1.50000000E+00 3.50000000E+01
  33 1 1 1.50000000E+00 3.50000000E+01
  34 1 1 1.50000000E+00 3.50000000E+01
  35 1 1 1.50000000E+00 3.50000000E+01
  36 1 1 1.50000000E+00 3.50000000E+01
  37 1 1 1.50000000E+00 3.50000000E+01
  38 1 1 1.50000000E+00 3.50000000E+01
  39 1 1 1.50000000E+00 3.50000000E+01
  40 1 1 1.50000000E+00 3.50000000E+01
END period  1

