# File generated by Flopy version 3.9.5 on 05/11/2026 at 05:38:25.
BEGIN options
END options

BEGIN griddata
  strt
    CONSTANT       1.50000000
END griddata

