# File generated by Flopy version 3.9.5 on 05/11/2026 at 05:38:25.
BEGIN options
  DENSEREF    1000.00000000
END options

BEGIN dimensions
  NRHOSPECIES  1
END dimensions

BEGIN packagedata
  1       0.70000000       0.00000000  gwt_paleo  CONCENTRATION
END packagedata

