# File generated by Flopy version 3.9.5 on 05/11/2026 at 05:38:25.
BEGIN options
  SAVE_FLOWS
END options

BEGIN packages
  DIS6  gwf_paleo.dis  dis
  NPF6  gwf_paleo.npf  npf
  IC6  gwf_paleo.ic  ic
  STO6  gwf_paleo.sto  sto
  CHD6  gwf_paleo.chd  chd
  GHB6  gwf_paleo.ghb  ghb
  RCH6  gwf_paleo.rcha  rch
  BUY6  gwf_paleo.buy  buy
  OC6  gwf_paleo.oc  oc
END packages

