# File generated by Flopy version 3.9.5 on 05/11/2026 at 05:38:25.
BEGIN options
  SAVE_SPECIFIC_DISCHARGE
END options

BEGIN griddata
  icelltype
    CONSTANT  1
  k  LAYERED
    INTERNAL  FACTOR  1.0
          16.11594194      16.12043845      16.12512600      16.13001423      16.13511333      16.14043411      16.14598795      16.15178693      16.15784382      16.16417210      16.17078610      16.17770094      16.18493264      16.19249820      16.20041557      16.20870382      16.21738312      16.22647486      16.23600172      16.24598770      16.25645829      16.26744048      16.27896288      16.29105584      16.30375151      16.31708399      16.33108940      16.34580605      16.36127453      16.37753781      16.39464144      16.41263365      16.43156547      16.45149093      16.47246714      16.49455450      16.51781680      16.54232139      16.56813933      16.59534549      16.62401874      16.65424201      16.68610243      16.71969139      16.75510463      16.79244225      16.83180871      16.87331279      16.91706749      16.96318988      17.01180087      17.06302490      17.11698956      17.17382511      17.23366382      17.29663925      17.36288542      17.43253568      17.50572158      17.58257146      17.66320888      17.74775088      17.83630601      17.92897216      18.02583426      18.12696178      18.23240604      18.34219750      18.45634288      18.57482236      18.69758673      18.82455479      18.95561081      19.09060243      19.22933890      19.37158983      19.51708458      19.66551230      19.81652285      19.96972844      20.12470629      20.28100211      20.43813447      20.59560003      20.75287945      20.90944392      21.06476217      21.21830766      21.36956586      21.51804142      21.66326483      21.80479873      21.94224328      22.07524076      22.20347920      22.32669488      22.44467383      22.55725227      22.66431596      22.76579877      22.86168035      22.95198314      23.03676887      23.11613465      23.19020878      23.25914649      23.32312556      23.38234220      23.43700692      23.48734078      23.53357186      23.57593211      23.61465446      23.64997040      23.68210780      23.71128914      23.73773006      23.76163813      23.78321198      23.80264067
    INTERNAL  FACTOR  1.0
          16.10543886      16.10993245      16.11461694      16.11950198      16.12459776      16.12991507      16.13546529      16.14126050      16.14731343      16.15363759      16.16024728      16.16715761      16.17438460      16.18194522      16.18985744      16.19814028      16.20681393      16.21589975      16.22542039      16.23539987      16.24586364      16.25683867      16.26835356      16.28043864      16.29312603      16.30644982      16.32044611      16.33515317      16.35061156      16.36686424      16.38395673      16.40193721      16.42085670      16.44076917      16.46173171      16.48380467      16.50705181      16.53154043      16.55734154      16.58452998      16.61318454      16.64338811      16.67522777      16.70879484      16.74418500      16.78149828      16.82083909      16.86231612      16.90604230      16.95213463      17.00071394      17.05190459      17.10583408      17.16263259      17.22243230      17.28536669      17.35156968      17.42117455      17.49431275      17.57111255      17.65169742      17.73618432      17.82468173      17.91728749      18.01408647      18.11514808      18.22052362      18.33024353      18.44431452      18.56271678      18.68540115      18.81228646      18.94325706      19.07816071      19.21680676      19.35896499      19.50436491      19.65269590      19.80360803      19.95671377      20.11159062      20.26778458      20.42481454      20.58217747      20.73935438      20.89581682      21.05103385      21.20447927      21.35563890      21.50401768      21.64914646      21.79058811      21.92794308      22.06085389      22.18900875      22.31214413      22.43004620      22.54255126      22.64954518      22.75096185      22.84678094      22.93702488      23.02175535      23.10106941      23.17509527      23.24398804      23.30792542      23.36710346      23.42173256      23.47203361      23.51823457      23.56056721      23.59926433      23.63455724      23.66667370      23.69583603      23.72225971      23.74615220      23.76771199      23.78712802
    INTERNAL  FACTOR  1.0
          16.09129458      16.09578422      16.10046460      16.10534535      16.11043666      16.11574929      16.12129464      16.12708476      16.13313237      16.13945098      16.14605486      16.15295913      16.16017977      16.16773375      16.17563902      16.18391459      16.19258062      16.20165846      16.21117074      16.22114146      16.23159603      16.24256142      16.25406620      16.26614067      16.27881692      16.29212901      16.30611300      16.32080715      16.33625196      16.35249037      16.36956785      16.38753254      16.40643541      16.42633039      16.44727452      16.46932810      16.49255482      16.51702194      16.54280039      16.56996495      16.59859434      16.62877139      16.66058308      16.69412067      16.72947975      16.76676027      16.80606652      16.84750713      16.89119491      16.93724676      16.98578340      17.03692909      17.09081123      17.14755985      17.20730704      17.27018616      17.33633101      17.40587475      17.47894872      17.55568107      17.63619517      17.72060787      17.80902756      17.90155199      17.99826596      18.09923881      18.20452181      18.31414536      18.42811617      18.54641444      18.66899107      18.79576494      18.92662053      19.06140570      19.19992999      19.34196336      19.48723559      19.63543631      19.78621590      19.93918719      20.09392802      20.24998481      20.40687685      20.56410159      20.72114046      20.87746549      21.03254620      21.18585686      21.33688373      21.48513221      21.63013352      21.77145097      21.90868531      22.04147938      22.16952170      22.29254893      22.41034746      22.52275371      22.62965367      22.73098127      22.82671621      22.91688089      23.00153696      23.08078136      23.15474220      23.22357447      23.28745570      23.34658177      23.40116289      23.45141977      23.49758015      23.53987561      23.57853874      23.61380067      23.64588891      23.67502563      23.70142611      23.72529761      23.74683848      23.76623745
    INTERNAL  FACTOR  1.0
          16.07226239      16.07674672      16.08142156      16.08629654      16.09138183      16.09668818      16.10222697      16.10801023      16.11405070      16.12036184      16.12695791      16.13385400      16.14106611      16.14861115      16.15650707      16.16477285      16.17342863      16.18249573      16.19199677      16.20195569      16.21239790      16.22335032      16.23484149      16.24690167      16.25956293      16.27285928      16.28682673      16.30150350      16.31693004      16.33314925      16.35020653      16.36814997      16.38703048      16.40690193      16.42782129      16.44984879      16.47304804      16.49748621      16.52323417      16.55036660      16.57896214      16.60910349      16.64087756      16.67437548      16.70969274      16.74692916      16.78618893      16.82758052      16.87121663      16.91721401      16.96569324      17.01677844      17.07059684      17.12727835      17.18695487      17.24975962      17.31582624      17.38528772      17.45827526      17.53491685      17.61533573      17.69964859      17.78796370      17.88037869      17.97697827      18.07783170      18.18299017      18.29248406      18.40632007      18.52447843      18.64691007      18.77353400      18.90423482      19.03886057      19.17722102      19.31908640      19.46418681      19.61221224      19.76281350      19.91560385      20.07016166      20.22603387      20.38274035      20.53977913      20.69663226      20.85277239      21.00766968      21.16079901      21.31164725      21.45972039      21.60455020      21.74570050      21.88277252      22.01540953      22.14330040      22.26618213      22.38384132      22.49611463      22.60288814      22.70409590      22.79971761      22.88977565      22.97433159      23.05348226      23.12735563      23.19610648      23.25991215      23.31896829      23.37348485      23.42368229      23.46978808      23.51203351      23.55065092      23.58587113      23.61792143      23.64702368      23.67339294      23.69723620      23.71875159      23.73812762
    INTERNAL  FACTOR  1.0
          16.04668140      16.05115859      16.05582599      16.06069321      16.06577041      16.07106831      16.07659829      16.08237235      16.08840320      16.09470429      16.10128986      16.10817498      16.11537561      16.12290865      16.13079200      16.13904462      16.14768662      16.15673930      16.16622521      16.17616828      16.18659387      16.19752886      16.20900174      16.22104273      16.23368384      16.24695901      16.26090424      16.27555765      16.29095964      16.30715303      16.32418316      16.34209804      16.36094850      16.38078833      16.40167439      16.42366683      16.44682915      16.47122843      16.49693541      16.52402465      16.55257467      16.58266805      16.61439155      16.64783616      16.68309720      16.72027436      16.75947164      16.80079735      16.84436401      16.89028818      16.93869025      16.98969414      17.04342688      17.10001817      17.15959971      17.22230451      17.28826597      17.35761689      17.43048827      17.50700787      17.58729875      17.67147742      17.75965196      17.85191987      17.94836569      18.04905860      18.15404970      18.26336932      18.37702414      18.49499444      18.61723122      18.74365361      18.87414640      19.00855787      19.14669810      19.28833769      19.43320715      19.58099699      19.73135854      19.88390571      20.03821753      20.19384164      20.35029871      20.50708753      20.66369102      20.81958263      20.97423338      21.12711899      21.27772714      21.42556459      21.57016389      21.71108953      21.84794339      21.98036930      22.10805661      22.23074275      22.34821468      22.46030929      22.56691286      22.66795954      22.76342905      22.85334375      22.93776510      23.01678980      23.09054559      23.15918702      23.22289114      23.28185328      23.33628307      23.38640062      23.43243302      23.47461121      23.51316715      23.54833131      23.58033059      23.60938653      23.63571381      23.65951913      23.68100027      23.70034546
    INTERNAL  FACTOR  1.0
          16.01234920      16.01681682      16.02147423      16.02633104      16.03139737      16.03668394      16.04220209      16.04796379      16.05398174      16.06026935      16.06684083      16.07371122      16.08089644      16.08841336      16.09627984      16.10451481      16.11313832      16.12217163      16.13163724      16.14155904      16.15196233      16.16287392      16.17432226      16.18633748      16.19895154      16.21219832      16.22611371      16.24073576      16.25610480      16.27226355      16.28925724      16.30713379      16.32594392      16.34574130      16.36658268      16.38852806      16.41164083      16.43598791      16.46163988      16.48867117      16.51716011      16.54718910      16.57884472      16.61221778      16.64740338      16.68450100      16.72361441      16.76485170      16.80832515      16.85415107      16.90244958      16.95334435      17.00696213      17.06343234      17.12288640      17.18545704      17.25127737      17.32047992      17.39319539      17.46955128      17.54967037      17.63366894      17.72165483      17.81372533      17.90996480      18.01044228      18.11520875      18.22429447      18.33770613      18.45542402      18.57739928      18.70355119      18.83376478      18.96788868      19.10573336      19.24706991      19.39162942      19.53910305      19.68914290      19.84136370      19.99534536      20.15063651      20.30675883      20.46321221      20.61948064      20.77503872      20.92935859      21.08191709      21.23220301      21.37972417      21.52401409      21.66463822      21.80119927      21.93334185      22.06075598      22.18317963      22.30040022      22.41225501      22.51863050      22.61946098      22.71472624      22.80444856      22.88868929      22.96754491      23.04114290      23.10963747      23.17320529      23.23204129      23.28635463      23.33636494      23.38229886      23.42438681      23.46286026      23.49794918      23.52988000      23.55887377      23.58514473      23.60889911      23.63033430      23.64963809
    INTERNAL  FACTOR  1.0
          15.96636364      15.97081843      15.97546247      15.98030532      15.98535710      15.99062849      15.99613079      16.00187595      16.00787661      16.01414617      16.02069878      16.02754943      16.03471402      16.04220935      16.05005324      16.05826456      16.06686331      16.07587067      16.08530910      16.09520241      16.10557581      16.11645607      16.12787153      16.13985225      16.15243008      16.16563881      16.17951424      16.19409430      16.20941921      16.22553154      16.24247643      16.26030165      16.27905776      16.29879828      16.31957980      16.34146216      16.36450855      16.38878571      16.41436401      16.44131767      16.46972479      16.49966755      16.53123225      16.56450946      16.59959402      16.63658510      16.67558618      16.71670504      16.76005364      16.80574795      16.85390776      16.90465636      16.95812016      17.01442819      17.07371151      17.13610245      17.20173376      17.27073757      17.34324420      17.41938081      17.49926980      17.58302714      17.67076035      17.76256643      17.85852952      17.95871843      18.06318403      18.17195647      18.28504242      18.40242224      18.52404720      18.64983681      18.77967645      18.91341516      19.05086397      19.19179461      19.33593896      19.48298907      19.63259803      19.78438166      19.93792111      20.09276628      20.24844024      20.40444430      20.56026394      20.71537528      20.86925196      21.02137233      21.17122665      21.31832415      21.46219969      21.60241996      21.73858883      21.87035191      21.99740011      22.11947218      22.23635613      22.34788968      22.45395967      22.55450058      22.64949225      22.73895690      22.82295570      22.90158486      22.97497148      23.04326935      23.10665461      23.16532163      23.21947899      23.26934568      23.31514768      23.35711476      23.39547772      23.43046587      23.46230499      23.49121549      23.51741100      23.54109717      23.56247079      23.58171915
    INTERNAL  FACTOR  1.0
          15.90493316      15.90937080      15.91399697      15.91882120      15.92385354      15.92910465      15.93458578      15.94030883      15.94628641      15.95253184      15.95905924      15.96588354      15.97302056      15.98048705      15.98830076      15.99648049      16.00504615      16.01401886      16.02342097      16.03327621      16.04360971      16.05444811      16.06581964      16.07775426      16.09028371      16.10344162      16.11726366      16.13178763      16.14705357      16.16310391      16.17998360      16.19774024      16.21642418      16.23608875      16.25679032      16.27858848      16.30154621      16.32572995      16.35120985      16.37805980      16.40635763      16.43618518      16.46762844      16.50077762      16.53572719      16.57257594      16.61142697      16.65238763      16.69556944      16.74108794      16.78906245      16.83961580      16.89287390      16.94896529      17.00802051      17.07017140      17.13555020      17.20428851      17.27651618      17.35235985      17.43194147      17.51537655      17.60277221      17.69422506      17.78981894      17.88962238      17.99368604      18.10203998      18.21469083      18.33161904      18.45277604      18.57808168      18.70742176      18.84064592      18.97756589      19.11795430      19.26154406      19.40802839      19.55706173      19.70826138      19.86121008      20.01545949      20.17053449      20.32593833      20.48115845      20.63567300      20.78895764      20.94049273      21.08977049      21.23630203      21.37962401      21.51930478      21.65494974      21.78620586      21.91276525      22.03436765      22.15080189      22.26190631      22.36756820      22.46772228      22.56234847      22.65146891      22.73514452      22.81347115      22.88657542      22.95461051      23.01775190      23.07619320      23.13014219      23.17981702      23.22544279      23.26724841      23.30546376      23.34031730      23.37203392      23.40083319      23.42692791      23.45052294      23.47181433      23.49098863
    INTERNAL  FACTOR  1.0
          15.82316185      15.82757668      15.83217907      15.83697849      15.84198496      15.84720907      15.85266202      15.85835565      15.86430250      15.87051582      15.87700966      15.88379887      15.89089920      15.89832731      15.90610084      15.91423852      15.92276014      15.93168671      15.94104049      15.95084506      15.96112543      15.97190811      15.98322118      15.99509444      16.00755947      16.02064973      16.03440071      16.04885000      16.06403746      16.08000528      16.09679819      16.11446353      16.13305142      16.15261489      16.17321003      16.19489612      16.21773581      16.24179523      16.26714412      16.29385603      16.32200837      16.35168257      16.38296418      16.41594292      16.45071281      16.48737211      16.52602340      16.56677347      16.60973327      16.65501775      16.70274561      16.75303905      16.80602334      16.86182635      16.92057796      16.98240931      17.04745198      17.11583689      17.18769321      17.26314695      17.34231943      17.42532555      17.51227188      17.60325455      17.69835695      17.79764728      17.90117592      18.00897279      18.12104448      18.23737152      18.35790563      18.48256704      18.61124215      18.74378137      18.87999739      19.01966404      19.16251556      19.30824678      19.45651390      19.60693619      19.75909855      19.91255492      20.06683265      20.22143751      20.37585961      20.52957976      20.68207633      20.83283234      20.98134262      21.12712080      21.26970593      21.40866856      21.54361614      21.67419744      21.80010616      21.92108336      22.03691898      22.14745219      22.25257085      22.35221001      22.44634970      22.53501194      22.61825737      22.69618130      22.76890972      22.83659502      22.89941178      22.95755262      23.01122424      23.06064368      23.10603488      23.14762557      23.18564445      23.22031879      23.25187235      23.28052355      23.30648411      23.32995784      23.35113977      23.37021549
    INTERNAL  FACTOR  1.0
          15.71482857      15.71921317      15.72378405      15.72855061      15.73352280      15.73871115      15.74412676      15.74978141      15.75568754      15.76185832      15.76830770      15.77505043      15.78210215      15.78947940      15.79719972      15.80528167      15.81374495      15.82261041      15.83190015      15.84163759      15.85184758      15.86255643      15.87379205      15.88558402      15.89796370      15.91096434      15.92462118      15.93897154      15.95405502      15.96991352      15.98659146      16.00413585      16.02259648      16.04202600      16.06248014      16.08401776      16.10670107      16.13059576      16.15577111      16.18230014      16.21025973      16.23973077      16.27079820      16.30355116      16.33808299      16.37449131      16.41287797      16.45334904      16.49601472      16.54098916      16.58839026      16.63833936      16.69096089      16.74638184      16.80473121      16.86613924      16.93073659      16.99865330      17.07001766      17.14495481      17.22358523      17.30602305      17.39237410      17.48273386      17.57718514      17.67579567      17.77861551      17.88567434      17.99697874      18.11250935      18.23221821      18.35602613      18.48382027      18.61545205      18.75073548      18.88944590      19.03131939      19.17605286      19.32330487      19.47269729      19.62381787      19.77622360      19.92944506      20.08299143      20.23635628      20.38902398      20.54047648      20.69020034      20.83769384      20.98247395      21.12408287      21.26209410      21.39611776      21.52580503      21.65085172      21.77100065      21.88604320      21.99581965      22.10021861      22.19917559      22.29267075      22.38072597      22.46340145      22.54079188      22.61302237      22.68024426      22.74263095      22.80037373      22.85367788      22.90275897      22.94783940      22.98914534      23.02690392      23.06134087      23.09267839      23.12113343      23.14691626      23.17022927      23.19126617      23.21021129
    INTERNAL  FACTOR  1.0
          15.57220176      15.57654657      15.58107596      15.58579926      15.59072633      15.59586759      15.60123405      15.60683738      15.61268990      15.61880468      15.62519552      15.63187706      15.63886477      15.64617507      15.65382532      15.66183392      15.67022039      15.67900539      15.68821081      15.69785988      15.70797720      15.71858886      15.72972250      15.74140745      15.75367478      15.76655742      15.78009031      15.79431043      15.80925701      15.82497158      15.84149815      15.85888331      15.87717639      15.89642958      15.91669807      15.93804021      15.96051766      15.98419548      16.00914234      16.03543059      16.06313642      16.09233998      16.12312545      16.15558115      16.18979957      16.22587745      16.26391571      16.30401947      16.34629792      16.39086418      16.43783506      16.48733083      16.53947477      16.59439273      16.65221252      16.71306321      16.77707428      16.84437459      16.91509125      16.98934827      17.06726504      17.14895466      17.23452200      17.32406166      17.41765571      17.51537126      17.61725791      17.72334508      17.83363928      17.94812134      18.06674374      18.18942799      18.31606227      18.44649937      18.58055498      18.71800646      18.85859232      19.00201220      19.14792776      19.29596431      19.44571332      19.59673583      19.74856666      19.90071945      20.05269237      20.20397447      20.35405240      20.50241737      20.64857224      20.79203833      20.93236201      21.06912066      21.20192793      21.33043817      21.45434994      21.57340841      21.68740684      21.79618696      21.89963840      21.99769726      22.09034386      22.17759990      22.25952502      22.33621306      22.40778799      22.47439978      22.53622025      22.59343896      22.64625933      22.69489496      22.73956625      22.78049729      22.81791318      22.85203758      22.88309068      22.91128747      22.93683629      22.95993772      22.98078369      22.99955686
    INTERNAL  FACTOR  1.0
          15.38596708      15.39025993      15.39473515      15.39940196      15.40427011      15.40934987      15.41465216      15.42018847      15.42597100      15.43201265      15.43832707      15.44492869      15.45183284      15.45905571      15.46661446      15.47452729      15.48281346      15.49149339      15.50058873      15.51012240      15.52011872      15.53060347      15.54160396      15.55314916      15.56526978      15.57799836      15.59136940      15.60541946      15.62018728      15.63571391      15.65204283      15.66922008      15.68729439      15.70631731      15.72634341      15.74743031      15.76963894      15.79303359      15.81768210      15.84365595      15.87103044      15.89988474      15.93030204      15.96236958      15.99617877      16.03182518      16.06940852      16.10903267      16.15080549      16.19483876      16.24124790      16.29015172      16.34167205      16.39593322      16.45306152      16.51318447      16.57643000      16.64292544      16.71279637      16.78616532      16.86315025      16.94386291      17.02840691      17.11687573      17.20935044      17.30589737      17.40656552      17.51138395      17.62035909      17.73347201      17.85067575      17.97189277      18.09701258      18.22588973      18.35834210      18.49414975      18.63305428      18.77475894      18.91892943      19.06519554      19.21315364      19.36237001      19.51238503      19.66271815      19.81287357      19.96234642      20.11062950      20.25722011      20.40162705      20.54337737      20.68202286      20.81714595      20.94836492      21.07533825      21.19776810      21.31540271      21.42803778      21.53551695      21.63773117      21.73461730      21.82615590      21.91236841      21.99331375      22.06908465      22.13980358      22.20561873      22.26669986      22.32323427      22.37542294      22.42347692      22.46761396      22.50805549      22.54502390      22.57874019      22.60942192      22.63728149      22.66252476      22.68534991      22.70594658      22.72449523
    INTERNAL  FACTOR  1.0
          15.14539152      15.14961724      15.15402249      15.15861633      15.16340836      15.16840870      15.17362807      15.17907782      15.18476994      15.19071712      15.19693280      15.20343120      15.21022740      15.21733733      15.22477789      15.23256700      15.24072361      15.24926782      15.25822094      15.26760554      15.27744556      15.28776636      15.29859485      15.30995953      15.32189063      15.33442019      15.34758216      15.36141253      15.37594944      15.39123330      15.40730690      15.42421556      15.44200726      15.46073274      15.48044571      15.50120290      15.52306427      15.54609312      15.57035622      15.59592395      15.62287041      15.65127354      15.68121523      15.71278137      15.74606191      15.78115095      15.81814664      15.85715122      15.89827088      15.94161564      15.98729913      16.03543830      16.08615305      16.13956579      16.19580083      16.25498370      16.31724032      16.38269603      16.45147445      16.52369620      16.59947740      16.67892803      16.76215010      16.84923561      16.94026439      17.03530171      17.13439580      17.23757528      17.34484649      17.45619077      17.57156191      17.69088357      17.81404700      17.94090902      18.07129037      18.20497452      18.34170714      18.48119610      18.62311233      18.76709142      18.91273604      19.05961926      19.20728864      19.35527115      19.50307872      19.65021442      19.79617893      19.94047745      20.08262644      20.22216034      20.35863797      20.49164827      20.62081549      20.74580347      20.86631900      20.98211426      21.09298817      21.19878680      21.29940279      21.39477400      21.48488130      21.56974579      21.64942547      21.72401160      21.79362477      21.85841084      21.91853690      21.97418733      22.02555998      22.07286258      22.11630950      22.15611868      22.19250906      22.22569816      22.25590015      22.28332410      22.30817267      22.33064092      22.35091554      22.36917417
    INTERNAL  FACTOR  1.0
          14.83889807      14.84303828      14.84735438      14.85185525      14.85655030      14.86144945      14.86656321      14.87190267      14.87747960      14.88330643      14.88939632      14.89576322      14.90242188      14.90938793      14.91667792      14.92430940      14.93230094      14.94067225      14.94944419      14.95863887      14.96827976      14.97839171      14.98900107      15.00013576      15.01182542      15.02410141      15.03699702      15.05054752      15.06479025      15.07976481      15.09551314      15.11207962      15.12951127      15.14785781      15.16717185      15.18750898      15.20892795      15.23149077      15.25526287      15.28031319      15.30671434      15.33454269      15.36387845      15.39480579      15.42741285      15.46179180      15.49803882      15.53625407      15.57654161      15.61900921      15.66376821      15.71093320      15.76062165      15.81295349      15.86805051      15.92603571      15.98703246      16.05116356      16.11855013      16.18931035      16.26355798      16.34140079      16.42293871      16.50826190      16.59744855      16.69056262      16.78765137      16.88874284      16.99384323      17.10293427      17.21597067      17.33287764      17.45354865      17.57784340      17.70558624      17.83656507      17.97053066      18.10719681      18.24624113      18.38730655      18.53000380      18.67391458      18.81859561      18.96358343      19.10839986      19.25255801      19.39556868      19.53694706      19.67621941      19.81292961      19.94664537      20.07696398      20.20351728      20.32597590      20.44405259      20.55750453      20.66613472      20.76979232      20.86837217      20.96181338      21.05009721      21.13324431      21.21131153      21.28438829      21.35259271      21.41606772      21.47497702      21.52950127      21.57983430      21.62617966      21.66874735      21.70775092      21.74340487      21.77592234      21.80551314      21.83238212      21.85672783      21.87874140      21.89860572      21.91649486
    INTERNAL  FACTOR  1.0