# File generated by Flopy version 3.9.5 on 05/11/2026 at 05:38:25.
BEGIN options
  READASARRAYS
END options

BEGIN period  1
  recharge
    INTERNAL  FACTOR  1.0
         0.00143324       0.00143324       0.00143324       0.00143324       0.00143324       0.00143324       0.00143324       0.00143324       0.00143324       0.00143324       0.00143324       0.00143324       0.00143324       0.00143324       0.00143324       0.00143324       0.00143324       0.00143324       0.00143324       0.00143324       0.00143324       0.00143324       0.00143324       0.00143324       0.00143324       0.00143324       0.00143324       0.00143324       0.00143324       0.00143324       0.00143324       0.00143324       0.00143324       0.00143324       0.00143324       0.00143324       0.00143324       0.00143324       0.00143324       0.00143324       0.00143324       0.00143324       0.00143324       0.00143324       0.00143324       0.00143324       0.00143324       0.00143324       0.00143324       0.00143324       0.00143324       0.00143324       0.00143324       0.00143324       0.00143324       0.00143324       0.00143324       0.00143324       0.00143324       0.00143324       0.00143324       0.00143324       0.00143324       0.00143324       0.00143324       0.00143324       0.00143324       0.00143324       0.00143324       0.00143324       0.00143324       0.00143324       0.00143324       0.00143324       0.00143324       0.00143324       0.00143324       0.00143324       0.00143324       0.00143324       0.00143324       0.00143324       0.00143324       0.00143324       0.00143324       0.00143324       0.00143324       0.00143324       0.00143324       0.00143324       0.00143324       0.00143324       0.00143324       0.00143324       0.00143324       0.00143324       0.00143324       0.00143324       0.00143324       0.00143324       0.00143324       0.00143324       0.00143324       0.00143324       0.00143324       0.00143324       0.00143324       0.00143324       0.00143324       0.00143324       0.00143324       0.00143324       0.00143324       0.00143324       0.00143324       0.00143324       0.00143324       0.00143324       0.00143324       0.00143324
END period  1

