# File generated by Flopy version 3.9.5 on 05/11/2026 at 05:38:25.
BEGIN options
  PRINT_OPTION  summary
  COMPLEXITY  moderate
END options

BEGIN nonlinear
  OUTER_DVCLOSE  1.00000000E-06
  OUTER_MAXIMUM  400
END nonlinear

BEGIN linear
  INNER_MAXIMUM  120
  INNER_DVCLOSE  1.00000000E-07
  inner_rclose  1.00000000E-05
  LINEAR_ACCELERATION  bicgstab
  RELAXATION_FACTOR       0.97000000
END linear

