# File generated by Flopy version 3.9.5 on 05/11/2026 at 05:38:25.
BEGIN options
  SAVE_FLOWS
END options

BEGIN packages
  DIS6  gwt_paleo.dis  dis
  IC6  gwt_paleo.ic  ic
  ADV6  gwt_paleo.adv  adv
  DSP6  gwt_paleo.dsp  dsp
  MST6  gwt_paleo.mst  mst
  CNC6  gwt_paleo.cnc  cnc
  SSM6  gwt_paleo.ssm  ssm
  OC6  gwt_paleo.oc  oc
END packages

