# File generated by Flopy version 3.9.5 on 05/11/2026 at 05:38:25.
BEGIN options
  SCHEME  tvd
END options

