# File generated by Flopy version 3.9.5 on 05/11/2026 at 05:38:25.
BEGIN options
END options

BEGIN timing
  TDIS6  gwf_paleo.tdis
END timing

BEGIN models
  gwf6  gwf_paleo.nam  gwf_paleo
  gwt6  gwt_paleo.nam  gwt_paleo
END models

BEGIN exchanges
  GWF6-GWT6  gwf_paleo_gwt_paleo.exg  gwf_paleo  gwt_paleo
END exchanges

BEGIN solutiongroup  1
  ims6  gwf.ims  gwf_paleo
  ims6  gwt.ims  gwt_paleo
END solutiongroup  1

