# File generated by Flopy version 3.9.5 on 05/11/2026 at 06:02:38.
BEGIN options
  TIME_UNITS  days
END options

BEGIN dimensions
  NPER  4
END dimensions

BEGIN perioddata
      59.00000000  12       1.00000000
      92.00000000  18       1.00000000
     122.00000000  20       1.00000000
      92.00000000  18       1.00000000
END perioddata

