# File generated by Flopy version 3.9.5 on 05/11/2026 at 06:02:38.
BEGIN options
  SAVE_FLOWS
END options

BEGIN packages
  DIS6  gwf_slr.dis  dis
  NPF6  gwf_slr.npf  npf
  IC6  gwf_slr.ic  ic
  STO6  gwf_slr.sto  sto
  CHD6  gwf_slr.chd  chd
  GHB6  gwf_slr.ghb  ghb
  RCH6  gwf_slr.rcha  rch
  WEL6  gwf_slr.wel  wel
  BUY6  gwf_slr.buy  buy
  OC6  gwf_slr.oc  oc
END packages

