# File generated by Flopy version 3.9.5 on 05/11/2026 at 06:02:38.
BEGIN options
  SAVE_FLOWS
END options

BEGIN packages
  DIS6  gwt_slr.dis  dis
  IC6  gwt_slr.ic  ic
  ADV6  gwt_slr.adv  adv
  DSP6  gwt_slr.dsp  dsp
  MST6  gwt_slr.mst  mst
  CNC6  gwt_slr.cnc  cnc
  SSM6  gwt_slr.ssm  ssm
  OC6  gwt_slr.oc  oc
END packages

