# File generated by Flopy version 3.9.5 on 05/11/2026 at 06:02:38.
BEGIN options
END options

BEGIN griddata
  strt  LAYERED
    INTERNAL  FACTOR  1.0
          35.00000000      27.56964493      23.16371346      20.13723183      17.89393997      16.09401131      14.57753181      13.21793652      12.10385323      11.64252567      11.39605141      11.12011051      10.83204460      10.51595974      10.17811871       9.82269287       9.45330334       9.07102489       8.68042088       8.29892063       7.96588135       7.67644024       7.04711723       5.99992895       5.69906330       5.43053341       5.14015913       4.83372164       4.51530790       4.18684006       3.84831691       3.50162792       3.15694189       2.83605695       2.54443431       2.13370967       1.61924160       1.40562761       1.17078471       0.98532015       0.83991414       0.71646225       0.60857201       0.51425242       0.42992261       0.35628650       0.29285794       0.23855522       0.19260527       0.15420935       0.12248234       0.09654400       0.07554705       0.05868376       0.04519861       0.03440155       0.02568283       0.01858616       0.01277884       0.00802108       0.00406002       0.00192325  8.57117120E-04  3.79348610E-04  1.60496813E-04  6.59657744E-05  2.81899884E-05  1.38126725E-05  8.57000214E-06  6.76078071E-06  6.16447460E-06  5.91600519E-06  5.76207685E-06  5.68115320E-06  5.72706040E-06  5.93220602E-06  6.32685351E-06  7.63306161E-06  8.82587574E-06  9.87088242E-06  1.03536331E-05  1.03776829E-05  9.87044496E-06  9.48284378E-06  9.03340788E-06  8.56308725E-06  8.09798257E-06  7.63699518E-06  7.18481942E-06  6.75141382E-06  6.34310618E-06  5.97561802E-06  5.67194593E-06  5.49004380E-06  5.47249329E-06  5.68276437E-06  5.64813126E-06  5.16841919E-06  4.68151848E-06  4.20123206E-06  3.73266698E-06  3.28070269E-06  2.84997850E-06  2.44443390E-06  2.06804384E-06  1.72374985E-06  1.41588032E-06  1.14752049E-06  9.18600279E-07  7.28953353E-07  5.76778689E-07  4.57114083E-07  3.59135498E-07  2.73682218E-07  2.05544922E-07  1.54483942E-07  1.14529172E-07  8.98658286E-08  7.28539931E-08  6.58332837E-08
    INTERNAL  FACTOR  1.0
          35.00000000      28.03954315      23.75268745      20.81338692      18.67426300      17.00295258      15.69179916      14.72650146      14.11637306      13.42576122      12.86820793      12.38689041      11.92081642      11.47848415      11.04580307      10.61575603      10.18481922       9.74940681       9.30909920       8.87559128       8.48859787       8.17201900       7.50574017       6.76853085       6.37623358       6.01205826       5.63930368       5.27165222       4.90468597       4.53539324       4.16073132       3.77988863       3.40078545       3.04722762       2.73641419       2.28876090       1.78301764       1.53436208       1.31599975       1.11325800       0.94117773       0.79542518       0.66942871       0.56240934       0.46627232       0.38407984       0.31418988       0.25491679       0.20512891       0.16377254       0.12976831       0.10208251       0.07974704       0.06185986       0.04759162       0.03619435       0.02701215       0.01955524       0.01347119       0.00850723       0.00450536       0.00201290  8.73838027E-04  3.87539068E-04  1.62937009E-04  6.70064910E-05  2.88811261E-05  1.43951784E-05  9.09295886E-06  7.23352559E-06  6.60295291E-06  6.36708592E-06  6.25111988E-06  6.20729179E-06  6.28266935E-06  6.51250593E-06  6.92455797E-06  7.39107782E-06  8.85617101E-06  9.91759680E-06  1.04001001E-05  1.04475339E-05  1.02359645E-05  9.84367762E-06  9.38669200E-06  8.90855154E-06  8.43515681E-06  7.96506174E-06  7.50325216E-06  7.06054470E-06  6.64217532E-06  6.26331030E-06  5.94899575E-06  5.75128479E-06  5.70167049E-06  5.86461601E-06  5.80689357E-06  5.31093929E-06  4.81281177E-06  4.32183560E-06  3.84256509E-06  3.37986444E-06  2.93844732E-06  2.52236964E-06  2.13574208E-06  1.78166897E-06  1.46470336E-06  1.18806747E-06  9.51759716E-07  7.55685107E-07  5.98048018E-07  4.73862116E-07  3.72213975E-07  2.83921594E-07  2.13787644E-07  1.61259578E-07  1.20544314E-07  9.58609903E-08  7.90921959E-08  7.26920959E-08
    INTERNAL  FACTOR  1.0
          35.00000000      28.59222412      24.52602005      21.68532181      19.70975685      18.13659286      16.92769432      16.01701927      15.28845215      14.53781796      13.89438152      13.30631256      12.76942635      12.26330280      11.77619934      11.29976654      10.82826710      10.35667038       9.88269615       9.41559219       8.99512386       8.66369152       7.90954733       7.29650927       6.90477371       6.47873259       6.05991888       5.65278101       5.25211430       4.85281324       4.45064259       4.04363966       3.63872671       3.26151371       2.93310976       2.43082333       1.91059935       1.65480936       1.42414939       1.21291995       1.02682543       0.86857736       0.72633970       0.60516638       0.50056261       0.41102999       0.33511734       0.27106881       0.21752700       0.17323951       0.13696754       0.10754038       0.08387426       0.06497284       0.04993130       0.03794221       0.02830229       0.02048349       0.01411212       0.00885974       0.00493363       0.00207764  8.88496346E-04  3.93687718E-04  1.64706886E-04  6.77983553E-05  2.94488509E-05  1.49084844E-05  9.58461351E-06  7.70508359E-06  7.05493130E-06  6.82098062E-06  6.72949272E-06  6.71580256E-06  6.82091104E-06  7.07474237E-06  7.52073220E-06  8.08348341E-06  9.45203828E-06  1.04426545E-05  1.08634749E-05  1.09125040E-05  1.06763409E-05  1.02752565E-05  9.81127050E-06  9.32546391E-06  8.84311157E-06  8.36249183E-06  7.88872148E-06  7.43347300E-06  7.00078090E-06  6.60678825E-06  6.27606096E-06  6.05251898E-06  5.95019492E-06  6.07343691E-06  6.00911244E-06  5.49553033E-06  4.98428108E-06  4.48058881E-06  3.98839529E-06  3.51253061E-06  3.05777417E-06  2.62832532E-06  2.22847211E-06  1.86156456E-06  1.53248129E-06  1.24463975E-06  9.98164751E-07  7.93079380E-07  6.27629277E-07  4.96904249E-07  3.90058716E-07  2.97986645E-07  2.25335512E-07  1.70942002E-07  1.28816978E-07  1.04540632E-07  8.73436932E-08  8.09371983E-08
    INTERNAL  FACTOR  1.0
          35.00000000      29.26429558      25.57169151      22.87567329      20.88600922      19.32698822      18.08675194      17.09092331      15.97157192      15.32281494      14.65599537      14.03463650      13.46332264      12.92436218      12.40643406      11.90156174      11.40366459      10.90757656      10.41057491       9.92073345       9.47671604       9.13394165       8.31160069       7.76202250       7.33382750       6.87651634       6.42755032       5.99375677       5.56913328       5.14752865       4.72416639       4.29670858       3.87173367       3.47698474       3.13668561       2.55253816       2.02276516       1.78467453       1.52281070       1.30146182       1.10218394       0.92822868       0.77664179       0.64579952       0.53325361       0.43699703       0.35543287       0.28680301       0.22960864       0.18244596       0.14394359       0.11280678       0.08784001       0.06795263       0.05216321       0.03960382       0.02952382       0.02135314       0.01469907       0.00922493       0.00524557       0.00212765  9.03545530E-04  3.99617478E-04  1.66589787E-04  6.86573767E-05  3.00310130E-05  1.54152040E-05  1.00694961E-05  8.18048647E-06  7.52113147E-06  7.28675695E-06  7.20920707E-06  7.21527158E-06  7.34483365E-06  7.61844922E-06  8.07766446E-06  8.63428977E-06  9.92389141E-06  1.09660095E-05  1.13793276E-05  1.14295999E-05  1.11806494E-05  1.07718715E-05  1.03010125E-05  9.80725872E-06  9.31488830E-06  8.82198492E-06  8.33362083E-06  7.86248802E-06  7.41162012E-06  6.99798056E-06  6.64433946E-06  6.38926667E-06  6.21274694E-06  6.31524472E-06  6.25155417E-06  5.71977398E-06  5.19386231E-06  4.67557675E-06  4.16836292E-06  3.67703569E-06  3.20643062E-06  2.76090918E-06  2.34497747E-06  1.96231417E-06  1.61821993E-06  1.31636637E-06  1.05706954E-06  8.40518283E-07  6.65041341E-07  5.25897121E-07  4.12427283E-07  3.15655370E-07  2.39947980E-07  1.83309012E-07  1.39480022E-07  1.14975116E-07  9.73406742E-08  9.02850559E-08
    INTERNAL  FACTOR  1.0
          35.00000000      30.22583580      26.73112869      24.11581612      22.08714104      20.44557762      19.04908371      17.72215080      16.73797226      16.03390694      15.33720112      14.69484711      14.09466648      13.53008842      12.98912239      12.46297836      11.94512558      11.43030548      10.91563320      10.40810490       9.94404984       9.58059597       8.89549828       8.32525444       7.76932144       7.25644445       6.77774668       6.32100153       5.87612629       5.43571377       4.99438286       4.54951191       4.10748482       3.69827366       3.35410786       2.66442156       2.14909601       1.93537498       1.63277829       1.38782203       1.17521620       0.98879975       0.82658678       0.68634886       0.56581253       0.46280751       0.37558514       0.30234957       0.24147809       0.19142722       0.15069589       0.11786362       0.09161907       0.07077275       0.05426290       0.04115855       0.03066113       0.02215549       0.01522814       0.00957728       0.00549077       0.00216929  9.19489365E-04  4.05659841E-04  1.68665603E-04  6.96077404E-05  3.06482652E-05  1.59369738E-05  1.05665367E-05  8.67216568E-06  8.00967882E-06  7.77563582E-06  7.70609222E-06  7.72329076E-06  7.87043791E-06  8.15935073E-06  8.62118941E-06  9.16816589E-06  1.03702432E-05  1.14771801E-05  1.19292508E-05  1.19954002E-05  1.17413174E-05  1.13254218E-05  1.08472723E-05  1.03448683E-05  9.84115104E-06  9.33412230E-06  8.82861968E-06  8.33837839E-06  7.86535747E-06  7.42690736E-06  7.04291369E-06  6.74743796E-06  6.49786443E-06  6.57858618E-06  6.52969538E-06  5.98008683E-06  5.43835586E-06  4.90381126E-06  4.37966810E-06  3.87078671E-06  3.38204700E-06  2.91797710E-06  2.48333777E-06  2.08221900E-06  1.72043053E-06  1.40195891E-06  1.12738519E-06  8.97111306E-07  7.09596691E-07  5.60348326E-07  4.38963639E-07  3.36598674E-07  2.57274593E-07  1.98024921E-07  1.52185763E-07  1.26964508E-07  1.08943773E-07  1.00711098E-07
    INTERNAL  FACTOR  1.0
          35.00000000      31.21342468      27.93569756      25.31241608      23.17683411      21.36075020      19.74339104      18.32929039      17.50731468      16.74881935      16.00337791      15.33975697      14.71536255      14.12460136      13.56122684      13.01530552      12.47942543      11.94795799      11.41772842      10.89430618      10.40880394      10.01651859       9.68580914       8.94789314       8.22037792       7.64585018       7.13403749       6.65364599       6.18885040       5.73046637       5.27230072       4.81128645       4.35344410       3.93055391       3.58836746       2.78659296       2.32971954       2.09289336       1.75745618       1.48409820       1.25478840       1.05393791       0.87951022       0.72895515       0.59969592       0.48941031       0.39616206       0.31805977       0.25333714       0.20029414       0.15728104       0.12273566       0.09521812       0.07343034       0.05622324       0.04259840       0.03170727       0.02288784       0.01570050       0.00991175       0.00569410       0.00220494  9.35734541E-04  4.11595101E-04  1.70784697E-04  7.05841812E-05  3.12827287E-05  1.64755984E-05  1.10832061E-05  9.18638398E-06  8.52380072E-06  8.29064902E-06  8.22548373E-06  8.24694598E-06  8.40289431E-06  8.70102940E-06  9.16000499E-06  9.69290613E-06  1.07998112E-05  1.19777360E-05  1.25070828E-05  1.26029963E-05  1.23503442E-05  1.19275273E-05  1.14412369E-05  1.09291168E-05  1.04125702E-05  9.88965621E-06  9.36476044E-06  8.85233567E-06  8.35304581E-06  7.88421494E-06  7.46209662E-06  7.11852135E-06  6.79268578E-06  6.85843088E-06  6.83830604E-06  6.27236750E-06  5.71408327E-06  5.16187538E-06  4.61912987E-06  4.09085897E-06  3.58197781E-06  3.09716279E-06  2.64146183E-06  2.21945447E-06  1.83753593E-06  1.50007190E-06  1.20799075E-06  9.61953674E-07  7.60605474E-07  5.99766793E-07  4.69307963E-07  3.60476065E-07  2.76948811E-07  2.14734087E-07  1.66606057E-07  1.40225438E-07  1.22107238E-07  1.12263962E-07
    INTERNAL  FACTOR  1.0
          35.00000000      32.04013062      28.98734093      26.30196381      24.01427078      22.03187370      20.30884171      19.09073257      18.28182030      17.44731522      16.68654251      15.99188232      15.34191132      14.72775745      14.14106464      13.57510376      13.02143002      12.47383595      11.92870998      11.39003754      10.88193035      10.45487595      10.40826321       9.51254082       8.67545033       8.05100346       7.50643253       7.00117588       6.51574898       6.03916788       5.56433916       5.08760071       4.61430693       4.17698240       3.83633351       2.97782254       2.61290574       2.24269676       1.89011824       1.59090662       1.34296417       1.12547100       0.93713391       0.77490562       0.63585728       0.51747429       0.41760793       0.33421767       0.26536104       0.20915090       0.16375829       0.12745431       0.09865178       0.07593026       0.05804407       0.04392117       0.03265965       0.02354996       0.01611953       0.01022695       0.00586751       0.00223570  9.51506896E-04  4.17103351E-04  1.72771906E-04  7.15149654E-05  3.19109931E-05  1.70265757E-05  1.16210704E-05  9.72536054E-06  9.06422429E-06  8.83172197E-06  8.76836475E-06  8.78888568E-06  8.94419827E-06  9.24210053E-06  9.69539178E-06  1.02083814E-05  1.12151438E-05  1.24687886E-05  1.31078841E-05  1.32460864E-05  1.30007393E-05  1.25710003E-05  1.20754739E-05  1.15522971E-05  1.10213396E-05  1.04809023E-05  9.93471804E-06  9.39726488E-06  8.86769340E-06  8.36284198E-06  7.89483147E-06  7.49614173E-06  7.09236110E-06  7.15090800E-06  7.17184230E-06  6.59262923E-06  6.01747979E-06  5.44649856E-06  4.88373598E-06  4.33451669E-06  3.80379015E-06  3.29633372E-06  2.81750658E-06  2.37244990E-06  1.96820974E-06  1.60959951E-06  1.29798605E-06  1.03433501E-06  8.17537796E-07  6.43780595E-07  5.03182491E-07  3.87010090E-07  2.98661092E-07  2.33128787E-07  1.82494489E-07  1.54900974E-07  1.36175046E-07  1.25056474E-07
    INTERNAL  FACTOR  1.0
          35.00000000      32.58763123      29.62778091      26.95645142      24.59635353      22.58291245      20.99803734      19.90866470      19.05306816      18.15490341      17.37775803      16.65504265      15.98032761      15.34362030      14.73506832      14.14873886      13.57716751      13.01352787      12.45369244      11.90039349      11.36999512      10.91361523      10.87468052       9.99146175       9.12972355       8.47101784       7.89759398       7.36679745       6.86003590       6.36481380       5.87317848       5.38081264       4.89210320       4.43777895       4.08968830       3.34794641       2.97345090       2.39725041       2.03192949       1.70795214       1.43899155       1.20380843       1.00009072       0.82475787       0.67475724       0.54734743       0.44016629       0.35098520       0.27765244       0.21805936       0.17016286       0.13203812       0.10192847       0.07827519       0.05972510       0.04512555       0.03351685       0.02414179       0.01648911       0.01052264       0.00601696       0.00226249  9.66123131E-04  4.21907520E-04  1.74485904E-04  7.23427729E-05  3.25132714E-05  1.75843015E-05  1.21792082E-05  1.02892618E-05  9.63066032E-06  9.39805432E-06  9.33437332E-06  9.34990294E-06  9.49619425E-06  9.78194112E-06  1.02253825E-05  1.07134701E-05  1.16172687E-05  1.29508435E-05  1.37280585E-05  1.39197546E-05  1.36872914E-05  1.32506220E-05  1.27447211E-05  1.22089823E-05  1.16619613E-05  1.11024292E-05  1.05333793E-05  9.96838844E-06  9.40491464E-06  8.85868212E-06  8.33728700E-06  7.87686167E-06  7.39393363E-06  7.45241778E-06  7.52580991E-06  6.93750098E-06  6.34555636E-06  5.75500235E-06  5.17106628E-06  4.59960847E-06  4.04563161E-06  3.51392691E-06  3.01018076E-06  2.54015799E-06  2.11161159E-06  1.72987836E-06  1.39686188E-06  1.11387681E-06  8.80128709E-07  6.92212893E-07  5.40447502E-07  4.16034908E-07  3.22204897E-07  2.52992010E-07  1.99678567E-07  1.70843379E-07  1.51296021E-07  1.39235908E-07
    INTERNAL  FACTOR  1.0
          35.00000000      32.83157349      29.99829865      27.40717697      25.11247253      23.21392059      21.77499962      20.73306465      19.81852341      18.87387848      18.07530022      17.32837296      16.63046646      15.97206306      15.34351349      14.73713017      14.14768982      13.56807137      12.99360561      12.42552567      11.87461853      11.39010525      11.19864368      10.41547394       9.58474445       8.90508270       8.30593777       7.75057364       7.22212696       6.70788288       6.19924116       5.69124126       5.18725443       4.71353054       4.34045553       3.99657893       3.27154994       2.57298660       2.18588161       1.83509779       1.54274094       1.28851056       1.06825089       0.87865537       0.71656239       0.57916504       0.46393320       0.36842406       0.29024747       0.22703792       0.17650208       0.13648823       0.10504625       0.08046187       0.06126295       0.04620879       0.03427711       0.02466263       0.01681251       0.01079851       0.00614542       0.00228667  9.78976721E-04  4.25789069E-04  1.75814072E-04  7.30207248E-05  3.30733674E-05  1.81435062E-05  1.27559051E-05  1.08774284E-05  1.02225140E-05  9.98889573E-06  9.92285914E-06  9.93000594E-06  1.00604084E-05  1.03224756E-05  1.07474289E-05  1.12074649E-05  1.20069981E-05  1.34238835E-05  1.43655225E-05  1.46208085E-05  1.44067799E-05  1.39632975E-05  1.34460188E-05  1.28961874E-05  1.23314157E-05  1.17512081E-05  1.11578875E-05  1.05632207E-05  9.96285507E-06  9.37047662E-06  8.78872743E-06  8.26013638E-06  7.69631060E-06  7.75909120E-06  7.89772093E-06  7.30452484E-06  6.69618021E-06  6.08556866E-06  5.47954824E-06  4.88479691E-06  4.30643240E-06  3.74912929E-06  3.21890184E-06  2.72218904E-06  2.26750126E-06  1.86078046E-06  1.50457277E-06  1.20058723E-06  9.48419029E-07  7.45111265E-07  5.81124368E-07  4.47516157E-07  3.47492090E-07  2.74204751E-07  2.18037371E-07  1.87906025E-07  1.67716905E-07  1.54448912E-07
    INTERNAL  FACTOR  1.0
          35.00000000      33.07983398      30.39037514      27.88331032      25.69699478      23.92614746      22.58395386      21.54205513      20.57531548      19.59897995      18.77878380      18.00955772      17.29001999      16.61112213      15.96339321      15.33877754      14.73168468      14.13626099      13.54730320      12.96448326      12.39441872      11.87800884      11.54360962      10.83699131      10.04518223       9.35201740       8.72974014       8.15150738       7.60117912       7.06764269       6.54180479       6.01810408       5.49871445       5.00476980       4.60111237       4.63180542       3.51913977       2.77597570       2.35286212       1.97288597       1.65398192       1.37966502       1.14151347       0.93636554       0.76117539       0.61295176       0.48892823       0.38653651       0.30313861       0.23607410       0.18276216       0.14079174       0.10799411       0.08248153       0.06265096       0.04716628       0.03493779       0.02511120       0.01709197       0.01105365       0.00625579       0.00230635  9.89567023E-04  4.28573578E-04  1.76650210E-04  7.35064459E-05  3.35778641E-05  1.86997859E-05  1.33495014E-05  1.14890845E-05  1.08392642E-05  1.06037960E-05  1.05332729E-05  1.05291219E-05  1.06378166E-05  1.08666891E-05  1.12608222E-05  1.16903702E-05  1.23854725E-05  1.38874202E-05  1.50197338E-05  1.53477977E-05  1.51578151E-05  1.47078435E-05  1.41784431E-05  1.36131102E-05  1.30289445E-05  1.24264197E-05  1.18074095E-05  1.11812333E-05  1.05417384E-05  9.89929958E-06  9.25100176E-06  8.64787580E-06  8.00012549E-06  8.06744629E-06  8.28626435E-06  7.69225881E-06  7.06818173E-06  6.43734165E-06  5.80854794E-06  5.18963179E-06  4.58596787E-06  4.00192175E-06  3.44382647E-06  2.91882952E-06  2.43624595E-06  2.00271279E-06  1.62153106E-06  1.29485329E-06  1.02274601E-06  8.02741340E-07  6.25393682E-07  4.81547829E-07  3.74545181E-07  2.96733106E-07  2.37487910E-07  2.06052036E-07  1.85724332E-07  1.70781107E-07
    INTERNAL  FACTOR  1.0
          35.00000000      33.30730438      30.81690598      28.42070198      26.34319878      24.67540359      23.38791466      22.32510376      21.29457092      20.33190918      19.48561478      18.69530296      17.95591545      17.25802612      16.59227943      15.95074940      15.32687855      14.71599102      14.11285686      13.51543522      12.92750645      12.38031673      11.96129131      11.28048134      10.51468468       9.81076050       9.16754055       8.56757069       7.99584293       7.44287634       6.89965820       6.36013174       5.82510757       5.31181097       4.89338398       4.96584272       3.75304365       2.99733186       2.53237176       2.12263846       1.77230608       1.47739601       1.22001767       0.99798876       0.80855411       0.64857602       0.51510805       0.40529865       0.31629583       0.24513802       0.18891652       0.14492680       0.11075512       0.08432157       0.06388012       0.04799200       0.03549548       0.02548589       0.01732878       0.01128636       0.00635020       0.00231958  9.97550902E-04  4.30105632E-04  1.76857298E-04  7.37632436E-05  3.40164479E-05  1.92500429E-05  1.39588628E-05  1.21237463E-05  1.14807090E-05  1.12427369E-05  1.11654272E-05  1.11475129E-05  1.12292673E-05  1.14172144E-05  1.17672071E-05  1.21629619E-05  1.27544381E-05  1.43405196E-05  1.56916976E-05  1.61008793E-05  1.59405317E-05  1.54846475E-05  1.49427160E-05  1.43607176E-05  1.37556590E-05  1.31291354E-05  1.24828484E-05  1.18234966E-05  1.11433337E-05  1.04479386E-05  9.72795078E-06  9.04393619E-06  8.30761837E-06  8.37405332E-06  8.69138785E-06  8.10026177E-06  7.46133128E-06  6.81040228E-06  6.15834460E-06  5.51451922E-06  4.88481237E-06  4.27303030E-06  3.68579708E-06  3.13098417E-06  2.61876357E-06  2.15656178E-06  1.74855518E-06  1.39739404E-06  1.10370650E-06  8.65561560E-07  6.73578882E-07  5.18337060E-07  4.03476974E-07  3.20608706E-07  2.58040416E-07  2.25535445E-07  2.04814796E-07  1.88267606E-07
    INTERNAL  FACTOR  1.0
          35.00000000      33.51035309      31.23971176      28.98212814      27.01170540      25.42434120      24.16602325      23.07777214      22.00591087      21.05427551      20.19042587      19.38196182      18.62496948      17.90987778      17.22747993      16.57001495      15.93090630      15.30498600      14.68807602      14.07633591      13.47212124      12.89999962      12.42996502      11.74791908      10.99489689      10.28044128       9.61790848       8.99697971       8.40476513       7.83225965       7.27146912       6.71593857       6.16508102       5.63316870       5.19896126       5.13674116       3.98653007       3.23157763       2.72357059       2.28345704       1.89865994       1.58207750       1.30388391       1.06361639       0.85876071       0.68606204       0.54239410       0.42466453       0.32967979       0.25419158       0.19493204       0.14886679       0.11330904       0.08596726       0.06494013       0.04867909       0.03594621       0.02578475       0.01752296       0.01149412       0.00643015       0.00232467       0.00100266  4.30205371E-04  1.76276561E-04  7.37610535E-05  3.43830652E-05  1.97928603E-05  1.45836457E-05  1.27814792E-05  1.21471503E-05  1.19062515E-05  1.18198923E-05  1.17858108E-05  1.18360149E-05  1.19763799E-05  1.22697902E-05  1.26267551E-05  1.31162451E-05  1.47818964E-05  1.63840195E-05  1.68816387E-05  1.67562666E-05  1.62953656E-05  1.57408595E-05  1.51413533E-05  1.45141421E-05  1.38619780E-05  1.31866245E-05  1.24924418E-05  1.17705504E-05  1.10203764E-05  1.02248941E-05  9.45370903E-06  8.62267461E-06  8.67519066E-06  9.11437655E-06  8.52900303E-06  7.87625231E-06  7.20567641E-06  6.53004963E-06  5.86063288E-06  5.20425419E-06  4.56383850E-06  3.94625295E-06  3.36009316E-06  2.81644498E-06  2.32362277E-06  1.88680622E-06  1.50920800E-06  1.19211575E-06  9.34194077E-07  7.26127041E-07  5.58185832E-07  4.34469001E-07  3.45909029E-07  2.79706143E-07  2.46365289E-07  2.25032480E-07  2.06900538E-07
    INTERNAL  FACTOR  1.0
          35.00000000      33.68844986      31.63676643      29.53128624      27.67102242      26.14902496      24.90784836      23.79833984      22.71299362      21.76516914      20.88874054      20.06610489      19.29426003      18.56401253      17.86651421      17.19428635      16.54092407      15.90112972      15.27056885      14.64523697      14.02635193      13.43358612      12.90863132      12.24232483      11.48652267      10.76025867      10.07960892       9.43853569       8.82652092       8.23456669       7.65600920       7.08427000       6.51724958       5.96650028       5.50417471       5.25834322       4.22813272       3.47650766       2.92579937       2.45171475       2.03543019       1.69394004       1.39326429       1.13336825       0.91186714       0.72544032       0.57078648       0.44456571       0.34325024       0.26319379       0.20077278       0.15258282       0.11563406       0.08740287       0.06582008       0.04922032       0.03628568       0.02600557       0.01767344       0.01167279       0.00649936       0.00232020       0.00100464  4.28491505E-04  1.74974251E-04  7.34748755E-05  3.46779743E-05  2.03283380E-05  1.52245048E-05  1.34630864E-05  1.28395577E-05  1.25955330E-05  1.24981298E-05  1.24452226E-05  1.24600474E-05  1.25469151E-05  1.27727199E-05  1.30839499E-05  1.34739284E-05  1.52099710E-05  1.71010597E-05  1.76929407E-05  1.76073281E-05  1.71427546E-05  1.65759830E-05  1.59584797E-05  1.53081619E-05  1.46288612E-05  1.39225267E-05  1.31917741E-05  1.24272583E-05  1.16214533E-05  1.07482620E-05  9.88390366E-06  8.95227276E-06  8.98092821E-06  9.55732594E-06  8.97976861E-06  8.31432499E-06  7.62483387E-06  6.92551384E-06  6.22983089E-06  5.54621192E-06  4.87630223E-06  4.22715448E-06  3.60806075E-06  3.03108845E-06  2.50554126E-06  2.03773948E-06  1.63153322E-06  1.28897727E-06  1.00940508E-06  7.83595112E-07  6.01477268E-07  4.67754631E-07  3.72740544E-07  3.02485063E-07  2.68951879E-07  2.46386293E-07  2.26640395E-07
    INTERNAL  FACTOR  1.0
          35.00000000      33.84267426      31.99665260      30.03943253      28.30220413      26.83582878      25.60713196      24.46428680      23.41801453      22.46399879      21.57809448      20.74514389      19.96139145      19.21822357      18.50734329      17.82166672      17.15505219      16.50223160      15.85872269      15.22056675      14.58834648      13.97742844      13.41177464      12.74698448      11.98774910      11.24945736      10.55170155       9.89127541       9.25975037       8.64885712       8.05232048       7.46415854       6.88042355       6.30961227       5.80572796       5.40399933       4.48528004       3.73094749       3.13882136       2.62976503       2.18132377       1.81314135       1.48838782       1.20740879       0.96797198       0.76675445       0.60029209       0.46498364       0.35694936       0.27210233       0.20640184       0.15604503       0.11770763       0.08861223       0.06650881       0.04960833       0.03650939       0.02614588       0.01777864       0.01181796       0.00656130       0.00230618       0.00100261  4.24922066E-04  1.73027554E-04  7.29251115E-05  3.49040893E-05  2.08574111E-05  1.58833354E-05  1.41702703E-05  1.35597274E-05  1.33125732E-05  1.32025943E-05  1.31276292E-05  1.31042571E-05  1.31325160E-05  1.32810464E-05  1.35373812E-05  1.38316345E-05  1.56228325E-05  1.78492774E-05  1.85388963E-05  1.84968249E-05  1.80306288E-05  1.74522393E-05  1.68165880E-05  1.61425323E-05  1.54348290E-05  1.46956290E-05  1.39264757E-05  1.31183142E-05  1.22567781E-05  1.13053748E-05  1.03423499E-05  9.30529950E-06  9.31672730E-06  1.00237412E-05  9.45460306E-06  8.77762159E-06  8.07021024E-06  7.34726746E-06  6.62460161E-06  5.91318349E-06  5.21290940E-06  4.53094071E-06  3.87721957E-06  3.26487179E-06  2.70429086E-06  2.20308630E-06  1.76583467E-06  1.39547433E-06  1.09209975E-06  8.46646003E-07  6.48670323E-07  5.03610181E-07  4.01240129E-07  3.26838801E-07  2.92397999E-07  2.68837283E-07  2.47424509E-07
    INTERNAL  FACTOR  1.0