# File generated by Flopy version 3.9.5 on 05/11/2026 at 06:02:38.
BEGIN options
END options

BEGIN timing
  TDIS6  gwf_slr.tdis
END timing

BEGIN models
  gwf6  gwf_slr.nam  gwf_slr
  gwt6  gwt_slr.nam  gwt_slr
END models

BEGIN exchanges
  GWF6-GWT6  gwf_slr_gwt_slr.exg  gwf_slr  gwt_slr
END exchanges

BEGIN solutiongroup  1
  ims6  gwf.ims  gwf_slr
  ims6  gwt.ims  gwt_slr
END solutiongroup  1

