# File generated by Flopy version 3.9.5 on 04/21/2026 at 03:24:19.
BEGIN options
  TIME_UNITS  days
END options

BEGIN dimensions
  NPER  1
END dimensions

BEGIN perioddata
    4000.00000000  400       1.00000000
END perioddata

