# File generated by Flopy version 3.9.5 on 04/21/2026 at 03:24:19.
BEGIN options
  READASARRAYS
END options

BEGIN period  1
  recharge
    INTERNAL  FACTOR  1.0
         0.00150000       0.00150000       0.00150000       0.00150000       0.00150000       0.00150000       0.00150000       0.00150000       0.00150000       0.00150000       0.00150000       0.00150000       0.00150000       0.00150000       0.00150000       0.00150000       0.00150000       0.00150000       0.00150000       0.00150000       0.00150000       0.00150000       0.00150000       0.00150000       0.00150000       0.00150000       0.00150000       0.00150000       0.00150000       0.00150000       0.00150000       0.00150000       0.00150000       0.00150000       0.00150000       0.00150000       0.00150000       0.00150000       0.00150000       0.00150000       0.00150000       0.00150000       0.00150000       0.00150000       0.00150000       0.00150000       0.00150000       0.00150000       0.00150000       0.00150000       0.00150000       0.00150000       0.00150000       0.00150000       0.00150000       0.00150000       0.00150000       0.00150000       0.00150000       0.00150000       0.00150000       0.00150000       0.00150000       0.00150000       0.00150000       0.00150000       0.00150000       0.00150000       0.00150000       0.00150000       0.00150000       0.00150000       0.00150000       0.00150000       0.00150000       0.00150000       0.00150000       0.00150000       0.00150000       0.00150000       0.00150000       0.00150000       0.00150000       0.00150000       0.00150000       0.00150000       0.00150000       0.00150000       0.00150000       0.00150000       0.00150000       0.00150000       0.00150000       0.00150000       0.00150000       0.00150000       0.00150000       0.00150000       0.00150000       0.00150000       0.00150000       0.00150000       0.00150000       0.00150000       0.00150000       0.00150000       0.00150000       0.00150000       0.00150000       0.00150000       0.00150000       0.00150000       0.00150000       0.00150000       0.00150000       0.00150000       0.00150000       0.00150000       0.00150000       0.00150000
END period  1

