# File generated by Flopy version 3.9.5 on 04/21/2026 at 03:24:19.
BEGIN options
  SAVE_FLOWS
  NEWTON  UNDER_RELAXATION
END options

BEGIN packages
  DIS6  gwf_swi.dis  dis
  NPF6  gwf_swi.npf  npf
  IC6  gwf_swi.ic  ic
  STO6  gwf_swi.sto  sto
  CHD6  gwf_swi.chd  chd
  RCH6  gwf_swi.rcha  rch
  BUY6  gwf_swi.buy  buy
  OC6  gwf_swi.oc  oc
END packages

