# File generated by Flopy version 3.9.5 on 04/21/2026 at 03:24:19.
BEGIN options
END options

BEGIN sources
  CHD  AUX  CONCENTRATION
END sources

