# File generated by Flopy version 3.9.5 on 04/21/2026 at 03:24:19.
BEGIN options
END options

BEGIN griddata
  diffc
    CONSTANT       0.00000000
  alh
    CONSTANT       7.50000000
  ath1
    CONSTANT       0.75000000
  atv
    CONSTANT       0.75000000
END griddata

