# File generated by Flopy version 3.9.5 on 04/21/2026 at 03:24:19.
BEGIN options
  SAVE_FLOWS
END options

BEGIN packages
  DIS6  gwt_swi.dis  dis
  IC6  gwt_swi.ic  ic
  ADV6  gwt_swi.adv  adv
  DSP6  gwt_swi.dsp  dsp
  MST6  gwt_swi.mst  mst
  CNC6  gwt_swi.cnc  cnc
  SSM6  gwt_swi.ssm  ssm
  OC6  gwt_swi.oc  oc
END packages

