# File generated by Flopy version 3.9.5 on 05/11/2026 at 06:09:56.
BEGIN options
  SAVE_FLOWS
  NEWTON  UNDER_RELAXATION
END options

BEGIN packages
  DIS6  gwf.dis  dis
  IC6  gwf.ic  ic
  NPF6  gwf.npf  npf
  STO6  gwf.sto  sto
  BUY6  gwf.buy  buy
  CHD6  gwf.chd  sea_chd
  GHB6  gwf.ghb  inland_ghb
  RCH6  gwf.rcha  rcha
  WEL6  gwf.wel  pump
  OC6  gwf.oc  oc
END packages

