# File generated by Flopy version 3.9.5 on 05/11/2026 at 06:10:02.
BEGIN options
  READASARRAYS
  auxiliary  MP_CONC
END options

BEGIN period  1
  recharge
    INTERNAL  FACTOR  1.0
         0.00143324       0.00143324       0.00143324       0.00143324       0.00143324       0.00143324       0.00143324       0.00143324       0.00143324       0.00143324       0.00143324       0.00143324       0.00143324       0.00143324       0.00143324       0.00143324       0.00143324       0.00143324       0.00143324       0.00143324       0.00143324       0.00143324       0.00143324       0.00143324       0.00143324       0.00143324       0.00143324       0.00143324       0.00143324       0.00143324       0.00143324       0.00143324       0.00143324       0.00143324       0.00143324       0.00143324       0.00143324       0.00143324       0.00143324       0.00143324       0.00143324       0.00143324       0.00143324       0.00143324       0.00143324       0.00143324       0.00143324       0.00143324       0.00143324       0.00143324       0.00143324       0.00143324       0.00143324       0.00143324       0.00143324       0.00143324       0.00143324       0.00143324       0.00143324       0.00143324       0.00143324       0.00143324       0.00143324       0.00143324       0.00143324       0.00143324       0.00143324       0.00143324       0.00143324       0.00143324       0.00143324       0.00143324       0.00143324       0.00143324       0.00143324       0.00143324       0.00143324       0.00143324       0.00143324       0.00143324       0.00143324       0.00143324       0.00143324       0.00143324       0.00143324       0.00143324       0.00143324       0.00143324       0.00143324       0.00143324       0.00143324       0.00143324       0.00143324       0.00143324       0.00143324       0.00143324       0.00143324       0.00143324       0.00143324       0.00143324       0.00143324       0.00143324       0.00143324       0.00143324       0.00143324       0.00143324       0.00143324       0.00143324       0.00143324       0.00143324       0.00143324       0.00143324       0.00143324       0.00143324       0.00143324       0.00143324       0.00143324       0.00143324       0.00143324       0.00143324
  MP_CONC
    INTERNAL  FACTOR  1.0
         0.00000000       0.00000000       0.00000000       0.00000000       0.00000000       0.00000000       0.00000000       0.00000000       0.00000000       0.00000000       0.00000000       0.00000000       0.00000000       0.00000000       0.00000000       0.00000000       0.00000000       0.00000000       0.00000000       0.00000000       0.00000000       0.00000000       0.00000000       0.00000000       0.00000000       0.00000000       0.00000000       0.00000000       0.00000000       0.00000000       0.00000000       0.00000000       0.00000000       0.00000000       0.00000000       0.00000000       0.00000000       0.00000000       0.00000000       0.00000000       0.00000000       0.00000000       0.00000000       0.00000000       0.00000000       0.00000000       0.00000000       0.00000000       0.00000000       0.00000000       0.00000000       0.00000000       0.00000000       0.00000000       0.00000000       0.00000000       0.00000000       0.00000000       0.00000000       0.00000000       0.00000000       0.00000000       0.00000000       0.00000000       0.00000000       0.00000000       0.00000000       0.00000000       0.00000000       0.00000000       0.00000000       0.00000000       0.00000000       0.00000000       0.00000000       0.00000000       0.00000000       0.00000000       0.00000000       0.00000000       0.00000000       0.00000000       0.00000000       0.00000000       0.00000000       0.00000000       0.00000000       0.00000000       0.00000000       0.00000000       0.00000000       0.00000000       0.00000000       0.00000000       0.00000000       0.00000000       0.00000000       0.00000000       0.00000000       0.00000000       0.00000000       0.00000000       0.00000000       0.00000000       0.00000000       0.00000000       0.00000000       0.00000000       0.00000000       0.00000000       0.00000000       0.00000000       0.00000000       0.00000000       0.00000000       0.00000000       0.00000000       0.00000000       0.00000000       0.00000000
END period  1

BEGIN period  2
  recharge
    INTERNAL  FACTOR  1.0
    7.62711864E-07  7.62711864E-07  7.62711864E-07  7.62711864E-07  7.62711864E-07  7.62711864E-07  7.62711864E-07  7.62711864E-07  7.62711864E-07  7.62711864E-07  7.62711864E-07  7.62711864E-07  7.62711864E-07  7.62711864E-07  7.62711864E-07  7.62711864E-07  7.62711864E-07  7.62711864E-07  7.62711864E-07  7.62711864E-07  7.62711864E-07  7.62711864E-07  7.62711864E-07  7.62711864E-07  7.62711864E-07  7.62711864E-07  7.62711864E-07  7.62711864E-07  7.62711864E-07  7.62711864E-07  7.62711864E-07  7.62711864E-07  7.62711864E-07  7.62711864E-07  7.62711864E-07  7.62711864E-07  7.62711864E-07  7.62711864E-07  7.62711864E-07  7.62711864E-07  7.62711864E-07  7.62711864E-07  7.62711864E-07  7.62711864E-07  7.62711864E-07  7.62711864E-07  7.62711864E-07  7.62711864E-07  7.62711864E-07  7.62711864E-07  7.62711864E-07  7.62711864E-07  7.62711864E-07  7.62711864E-07  7.62711864E-07  7.62711864E-07  7.62711864E-07  7.62711864E-07  7.62711864E-07  7.62711864E-07  7.62711864E-07  7.62711864E-07  7.62711864E-07  7.62711864E-07  7.62711864E-07  7.62711864E-07  7.62711864E-07  7.62711864E-07  7.62711864E-07  7.62711864E-07  7.62711864E-07  7.62711864E-07  7.62711864E-07  7.62711864E-07  7.62711864E-07  7.62711864E-07  7.62711864E-07  7.62711864E-07  7.62711864E-07  7.62711864E-07  7.62711864E-07  7.62711864E-07  7.62711864E-07  7.62711864E-07  7.62711864E-07  7.62711864E-07  7.62711864E-07  7.62711864E-07  7.62711864E-07  7.62711864E-07  7.62711864E-07  7.62711864E-07  7.62711864E-07  7.62711864E-07  7.62711864E-07  7.62711864E-07  7.62711864E-07  7.62711864E-07  7.62711864E-07  7.62711864E-07  7.62711864E-07  7.62711864E-07  7.62711864E-07  7.62711864E-07  7.62711864E-07  7.62711864E-07  7.62711864E-07  7.62711864E-07  7.62711864E-07  7.62711864E-07  7.62711864E-07  7.62711864E-07  7.62711864E-07  7.62711864E-07  7.62711864E-07  7.62711864E-07  7.62711864E-07  7.62711864E-07  7.62711864E-07  7.62711864E-07
  MP_CONC
    INTERNAL  FACTOR  1.0
         0.50000000       0.50000000       0.50000000       0.50000000       0.50000000       0.50000000       0.50000000       0.50000000       0.50000000       0.50000000       0.50000000       0.50000000       0.50000000       0.50000000       0.50000000       0.50000000       0.50000000       0.50000000       0.50000000       0.50000000       0.50000000       0.50000000       0.50000000       0.50000000       0.50000000       0.50000000       0.50000000       0.50000000       0.50000000       0.50000000       0.50000000       0.50000000       0.50000000       0.50000000       0.50000000       0.50000000       0.50000000       0.50000000       0.50000000       0.50000000       0.50000000       0.50000000       0.50000000       0.50000000       0.50000000       0.50000000       0.50000000       0.50000000       0.50000000       0.50000000       0.50000000       0.00000000       0.00000000       0.00000000       0.00000000       0.00000000       0.00000000       0.00000000       0.00000000       0.00000000       0.00000000       0.00000000       0.00000000       0.00000000       0.00000000       0.00000000       0.00000000       0.00000000       0.00000000       0.00000000       0.00000000       0.00000000       0.00000000       0.00000000       0.00000000       0.00000000       0.00000000       0.00000000       0.00000000       0.00000000       0.00000000       0.00000000       0.00000000       0.00000000       0.00000000       0.00000000       0.00000000       0.00000000       0.00000000       0.00000000       0.00000000       0.00000000       0.00000000       0.00000000       0.00000000       0.00000000       0.00000000       0.00000000       0.00000000       0.00000000       0.00000000       0.00000000       0.00000000       0.00000000       0.00000000       0.00000000       0.00000000       0.00000000       0.00000000       0.00000000       0.00000000       0.00000000       0.00000000       0.00000000       0.00000000       0.00000000       0.00000000       0.00000000       0.00000000       0.00000000
END period  2

BEGIN period  3
  recharge
    INTERNAL  FACTOR  1.0
    7.64673913E-05  7.64673913E-05  7.64673913E-05  7.64673913E-05  7.64673913E-05  7.64673913E-05  7.64673913E-05  7.64673913E-05  7.64673913E-05  7.64673913E-05  7.64673913E-05  7.64673913E-05  7.64673913E-05  7.64673913E-05  7.64673913E-05  7.64673913E-05  7.64673913E-05  7.64673913E-05  7.64673913E-05  7.64673913E-05  7.64673913E-05  7.64673913E-05  7.64673913E-05  7.64673913E-05  7.64673913E-05  7.64673913E-05  7.64673913E-05  7.64673913E-05  7.64673913E-05  7.64673913E-05  7.64673913E-05  7.64673913E-05  7.64673913E-05  7.64673913E-05  7.64673913E-05  7.64673913E-05  7.64673913E-05  7.64673913E-05  7.64673913E-05  7.64673913E-05  7.64673913E-05  7.64673913E-05  7.64673913E-05  7.64673913E-05  7.64673913E-05  7.64673913E-05  7.64673913E-05  7.64673913E-05  7.64673913E-05  7.64673913E-05  7.64673913E-05  7.64673913E-05  7.64673913E-05  7.64673913E-05  7.64673913E-05  7.64673913E-05  7.64673913E-05  7.64673913E-05  7.64673913E-05  7.64673913E-05  7.64673913E-05  7.64673913E-05  7.64673913E-05  7.64673913E-05  7.64673913E-05  7.64673913E-05  7.64673913E-05  7.64673913E-05  7.64673913E-05  7.64673913E-05  7.64673913E-05  7.64673913E-05  7.64673913E-05  7.64673913E-05  7.64673913E-05  7.64673913E-05  7.64673913E-05  7.64673913E-05  7.64673913E-05  7.64673913E-05  7.64673913E-05  7.64673913E-05  7.64673913E-05  7.64673913E-05  7.64673913E-05  7.64673913E-05  7.64673913E-05  7.64673913E-05  7.64673913E-05  7.64673913E-05  7.64673913E-05  7.64673913E-05  7.64673913E-05  7.64673913E-05  7.64673913E-05  7.64673913E-05  7.64673913E-05  7.64673913E-05  7.64673913E-05  7.64673913E-05  7.64673913E-05  7.64673913E-05  7.64673913E-05  7.64673913E-05  7.64673913E-05  7.64673913E-05  7.64673913E-05  7.64673913E-05  7.64673913E-05  7.64673913E-05  7.64673913E-05  7.64673913E-05  7.64673913E-05  7.64673913E-05  7.64673913E-05  7.64673913E-05  7.64673913E-05  7.64673913E-05  7.64673913E-05  7.64673913E-05
  MP_CONC
    INTERNAL  FACTOR  1.0
         0.50000000       0.50000000       0.50000000       0.50000000       0.50000000       0.50000000       0.50000000       0.50000000       0.50000000       0.50000000       0.50000000       0.50000000       0.50000000       0.50000000       0.50000000       0.50000000       0.50000000       0.50000000       0.50000000       0.50000000       0.50000000       0.50000000       0.50000000       0.50000000       0.50000000       0.50000000       0.50000000       0.50000000       0.50000000       0.50000000       0.50000000       0.50000000       0.50000000       0.50000000       0.50000000       0.50000000       0.50000000       0.50000000       0.50000000       0.50000000       0.50000000       0.50000000       0.50000000       0.50000000       0.50000000       0.50000000       0.50000000       0.50000000       0.50000000       0.50000000       0.50000000       0.00000000       0.00000000       0.00000000       0.00000000       0.00000000       0.00000000       0.00000000       0.00000000       0.00000000       0.00000000       0.00000000       0.00000000       0.00000000       0.00000000       0.00000000       0.00000000       0.00000000       0.00000000       0.00000000       0.00000000       0.00000000       0.00000000       0.00000000       0.00000000       0.00000000       0.00000000       0.00000000       0.00000000       0.00000000       0.00000000       0.00000000       0.00000000       0.00000000       0.00000000       0.00000000       0.00000000       0.00000000       0.00000000       0.00000000       0.00000000       0.00000000       0.00000000       0.00000000       0.00000000       0.00000000       0.00000000       0.00000000       0.00000000       0.00000000       0.00000000       0.00000000       0.00000000       0.00000000       0.00000000       0.00000000       0.00000000       0.00000000       0.00000000       0.00000000       0.00000000       0.00000000       0.00000000       0.00000000       0.00000000       0.00000000       0.00000000       0.00000000       0.00000000       0.00000000
END period  3

BEGIN period  4
  recharge
    INTERNAL  FACTOR  1.0
         0.00346328       0.00346328       0.00346328       0.00346328       0.00346328       0.00346328       0.00346328       0.00346328       0.00346328       0.00346328       0.00346328       0.00346328       0.00346328       0.00346328       0.00346328       0.00346328       0.00346328       0.00346328       0.00346328       0.00346328       0.00346328       0.00346328       0.00346328       0.00346328       0.00346328       0.00346328       0.00346328       0.00346328       0.00346328       0.00346328       0.00346328       0.00346328       0.00346328       0.00346328       0.00346328       0.00346328       0.00346328       0.00346328       0.00346328       0.00346328       0.00346328       0.00346328       0.00346328       0.00346328       0.00346328       0.00346328       0.00346328       0.00346328       0.00346328       0.00346328       0.00346328       0.00346328       0.00346328       0.00346328       0.00346328       0.00346328       0.00346328       0.00346328       0.00346328       0.00346328       0.00346328       0.00346328       0.00346328       0.00346328       0.00346328       0.00346328       0.00346328       0.00346328       0.00346328       0.00346328       0.00346328       0.00346328       0.00346328       0.00346328       0.00346328       0.00346328       0.00346328       0.00346328       0.00346328       0.00346328       0.00346328       0.00346328       0.00346328       0.00346328       0.00346328       0.00346328       0.00346328       0.00346328       0.00346328       0.00346328       0.00346328       0.00346328       0.00346328       0.00346328       0.00346328       0.00346328       0.00346328       0.00346328       0.00346328       0.00346328       0.00346328       0.00346328       0.00346328       0.00346328       0.00346328       0.00346328       0.00346328       0.00346328       0.00346328       0.00346328       0.00346328       0.00346328       0.00346328       0.00346328       0.00346328       0.00346328       0.00346328       0.00346328       0.00346328       0.00346328
  MP_CONC
    INTERNAL  FACTOR  1.0
         0.50000000       0.50000000       0.50000000       0.50000000       0.50000000       0.50000000       0.50000000       0.50000000       0.50000000       0.50000000       0.50000000       0.50000000       0.50000000       0.50000000       0.50000000       0.50000000       0.50000000       0.50000000       0.50000000       0.50000000       0.50000000       0.50000000       0.50000000       0.50000000       0.50000000       0.50000000       0.50000000       0.50000000       0.50000000       0.50000000       0.50000000       0.50000000       0.50000000       0.50000000       0.50000000       0.50000000       0.50000000       0.50000000       0.50000000       0.50000000       0.50000000       0.50000000       0.50000000       0.50000000       0.50000000       0.50000000       0.50000000       0.50000000       0.50000000       0.50000000       0.50000000       0.00000000       0.00000000       0.00000000       0.00000000       0.00000000       0.00000000       0.00000000       0.00000000       0.00000000       0.00000000       0.00000000       0.00000000       0.00000000       0.00000000       0.00000000       0.00000000       0.00000000       0.00000000       0.00000000       0.00000000       0.00000000       0.00000000       0.00000000       0.00000000       0.00000000       0.00000000       0.00000000       0.00000000       0.00000000       0.00000000       0.00000000       0.00000000       0.00000000       0.00000000       0.00000000       0.00000000       0.00000000       0.00000000       0.00000000       0.00000000       0.00000000       0.00000000       0.00000000       0.00000000       0.00000000       0.00000000       0.00000000       0.00000000       0.00000000       0.00000000       0.00000000       0.00000000       0.00000000       0.00000000       0.00000000       0.00000000       0.00000000       0.00000000       0.00000000       0.00000000       0.00000000       0.00000000       0.00000000       0.00000000       0.00000000       0.00000000       0.00000000       0.00000000       0.00000000
END period  4

BEGIN period  5
  recharge
    INTERNAL  FACTOR  1.0
    5.29728261E-04  5.29728261E-04  5.29728261E-04  5.29728261E-04  5.29728261E-04  5.29728261E-04  5.29728261E-04  5.29728261E-04  5.29728261E-04  5.29728261E-04  5.29728261E-04  5.29728261E-04  5.29728261E-04  5.29728261E-04  5.29728261E-04  5.29728261E-04  5.29728261E-04  5.29728261E-04  5.29728261E-04  5.29728261E-04  5.29728261E-04  5.29728261E-04  5.29728261E-04  5.29728261E-04  5.29728261E-04  5.29728261E-04  5.29728261E-04  5.29728261E-04  5.29728261E-04  5.29728261E-04  5.29728261E-04  5.29728261E-04  5.29728261E-04  5.29728261E-04  5.29728261E-04  5.29728261E-04  5.29728261E-04  5.29728261E-04  5.29728261E-04  5.29728261E-04  5.29728261E-04  5.29728261E-04  5.29728261E-04  5.29728261E-04  5.29728261E-04  5.29728261E-04  5.29728261E-04  5.29728261E-04  5.29728261E-04  5.29728261E-04  5.29728261E-04  5.29728261E-04  5.29728261E-04  5.29728261E-04  5.29728261E-04  5.29728261E-04  5.29728261E-04  5.29728261E-04  5.29728261E-04  5.29728261E-04  5.29728261E-04  5.29728261E-04  5.29728261E-04  5.29728261E-04  5.29728261E-04  5.29728261E-04  5.29728261E-04  5.29728261E-04  5.29728261E-04  5.29728261E-04  5.29728261E-04  5.29728261E-04  5.29728261E-04  5.29728261E-04  5.29728261E-04  5.29728261E-04  5.29728261E-04  5.29728261E-04  5.29728261E-04  5.29728261E-04  5.29728261E-04  5.29728261E-04  5.29728261E-04  5.29728261E-04  5.29728261E-04  5.29728261E-04  5.29728261E-04  5.29728261E-04  5.29728261E-04  5.29728261E-04  5.29728261E-04  5.29728261E-04  5.29728261E-04  5.29728261E-04  5.29728261E-04  5.29728261E-04  5.29728261E-04  5.29728261E-04  5.29728261E-04  5.29728261E-04  5.29728261E-04  5.29728261E-04  5.29728261E-04  5.29728261E-04  5.29728261E-04  5.29728261E-04  5.29728261E-04  5.29728261E-04  5.29728261E-04  5.29728261E-04  5.29728261E-04  5.29728261E-04  5.29728261E-04  5.29728261E-04  5.29728261E-04  5.29728261E-04  5.29728261E-04  5.29728261E-04  5.29728261E-04  5.29728261E-04
  MP_CONC
    INTERNAL  FACTOR  1.0
         0.50000000       0.50000000       0.50000000       0.50000000       0.50000000       0.50000000       0.50000000       0.50000000       0.50000000       0.50000000       0.50000000       0.50000000       0.50000000       0.50000000       0.50000000       0.50000000       0.50000000       0.50000000       0.50000000       0.50000000       0.50000000       0.50000000       0.50000000       0.50000000       0.50000000       0.50000000       0.50000000       0.50000000       0.50000000       0.50000000       0.50000000       0.50000000       0.50000000       0.50000000       0.50000000       0.50000000       0.50000000       0.50000000       0.50000000       0.50000000       0.50000000       0.50000000       0.50000000       0.50000000       0.50000000       0.50000000       0.50000000       0.50000000       0.50000000       0.50000000       0.50000000       0.00000000       0.00000000       0.00000000       0.00000000       0.00000000       0.00000000       0.00000000       0.00000000       0.00000000       0.00000000       0.00000000       0.00000000       0.00000000       0.00000000       0.00000000       0.00000000       0.00000000       0.00000000       0.00000000       0.00000000       0.00000000       0.00000000       0.00000000       0.00000000       0.00000000       0.00000000       0.00000000       0.00000000       0.00000000       0.00000000       0.00000000       0.00000000       0.00000000       0.00000000       0.00000000       0.00000000       0.00000000       0.00000000       0.00000000       0.00000000       0.00000000       0.00000000       0.00000000       0.00000000       0.00000000       0.00000000       0.00000000       0.00000000       0.00000000       0.00000000       0.00000000       0.00000000       0.00000000       0.00000000       0.00000000       0.00000000       0.00000000       0.00000000       0.00000000       0.00000000       0.00000000       0.00000000       0.00000000       0.00000000       0.00000000       0.00000000       0.00000000       0.00000000       0.00000000
END period  5

BEGIN period  6
  recharge
    INTERNAL  FACTOR  1.0
    1.77966102E-06  1.77966102E-06  1.77966102E-06  1.77966102E-06  1.77966102E-06  1.77966102E-06  1.77966102E-06  1.77966102E-06  1.77966102E-06  1.77966102E-06  1.77966102E-06  1.77966102E-06  1.77966102E-06  1.77966102E-06  1.77966102E-06  1.77966102E-06  1.77966102E-06  1.77966102E-06  1.77966102E-06  1.77966102E-06  1.77966102E-06  1.77966102E-06  1.77966102E-06  1.77966102E-06  1.77966102E-06  1.77966102E-06  1.77966102E-06  1.77966102E-06  1.77966102E-06  1.77966102E-06  1.77966102E-06  1.77966102E-06  1.77966102E-06  1.77966102E-06  1.77966102E-06  1.77966102E-06  1.77966102E-06  1.77966102E-06  1.77966102E-06  1.77966102E-06  1.77966102E-06  1.77966102E-06  1.77966102E-06  1.77966102E-06  1.77966102E-06  1.77966102E-06  1.77966102E-06  1.77966102E-06  1.77966102E-06  1.77966102E-06  1.77966102E-06  1.77966102E-06  1.77966102E-06  1.77966102E-06  1.77966102E-06  1.77966102E-06  1.77966102E-06  1.77966102E-06  1.77966102E-06  1.77966102E-06  1.77966102E-06  1.77966102E-06  1.77966102E-06  1.77966102E-06  1.77966102E-06  1.77966102E-06  1.77966102E-06  1.77966102E-06  1.77966102E-06  1.77966102E-06  1.77966102E-06  1.77966102E-06  1.77966102E-06  1.77966102E-06  1.77966102E-06  1.77966102E-06  1.77966102E-06  1.77966102E-06  1.77966102E-06  1.77966102E-06  1.77966102E-06  1.77966102E-06  1.77966102E-06  1.77966102E-06  1.77966102E-06  1.77966102E-06  1.77966102E-06  1.77966102E-06  1.77966102E-06  1.77966102E-06  1.77966102E-06  1.77966102E-06  1.77966102E-06  1.77966102E-06  1.77966102E-06  1.77966102E-06  1.77966102E-06  1.77966102E-06  1.77966102E-06  1.77966102E-06  1.77966102E-06  1.77966102E-06  1.77966102E-06  1.77966102E-06  1.77966102E-06  1.77966102E-06  1.77966102E-06  1.77966102E-06  1.77966102E-06  1.77966102E-06  1.77966102E-06  1.77966102E-06  1.77966102E-06  1.77966102E-06  1.77966102E-06  1.77966102E-06  1.77966102E-06  1.77966102E-06  1.77966102E-06  1.77966102E-06
  MP_CONC
    INTERNAL  FACTOR  1.0
         0.50000000       0.50000000       0.50000000       0.50000000       0.50000000       0.50000000       0.50000000       0.50000000       0.50000000       0.50000000       0.50000000       0.50000000       0.50000000       0.50000000       0.50000000       0.50000000       0.50000000       0.50000000       0.50000000       0.50000000       0.50000000       0.50000000       0.50000000       0.50000000       0.50000000       0.50000000       0.50000000       0.50000000       0.50000000       0.50000000       0.50000000       0.50000000       0.50000000       0.50000000       0.50000000       0.50000000       0.50000000       0.50000000       0.50000000       0.50000000       0.50000000       0.50000000       0.50000000       0.50000000       0.50000000       0.50000000       0.50000000       0.50000000       0.50000000       0.50000000       0.50000000       0.00000000       0.00000000       0.00000000       0.00000000       0.00000000       0.00000000       0.00000000       0.00000000       0.00000000       0.00000000       0.00000000       0.00000000       0.00000000       0.00000000       0.00000000       0.00000000       0.00000000       0.00000000       0.00000000       0.00000000       0.00000000       0.00000000       0.00000000       0.00000000       0.00000000       0.00000000       0.00000000       0.00000000       0.00000000       0.00000000       0.00000000       0.00000000       0.00000000       0.00000000       0.00000000       0.00000000       0.00000000       0.00000000       0.00000000       0.00000000       0.00000000       0.00000000       0.00000000       0.00000000       0.00000000       0.00000000       0.00000000       0.00000000       0.00000000       0.00000000       0.00000000       0.00000000       0.00000000       0.00000000       0.00000000       0.00000000       0.00000000       0.00000000       0.00000000       0.00000000       0.00000000       0.00000000       0.00000000       0.00000000       0.00000000       0.00000000       0.00000000       0.00000000       0.00000000
END period  6

BEGIN period  7
  recharge
    INTERNAL  FACTOR  1.0
    9.70108696E-05  9.70108696E-05  9.70108696E-05  9.70108696E-05  9.70108696E-05  9.70108696E-05  9.70108696E-05  9.70108696E-05  9.70108696E-05  9.70108696E-05  9.70108696E-05  9.70108696E-05  9.70108696E-05  9.70108696E-05  9.70108696E-05  9.70108696E-05  9.70108696E-05  9.70108696E-05  9.70108696E-05  9.70108696E-05  9.70108696E-05  9.70108696E-05  9.70108696E-05  9.70108696E-05  9.70108696E-05  9.70108696E-05  9.70108696E-05  9.70108696E-05  9.70108696E-05  9.70108696E-05  9.70108696E-05  9.70108696E-05  9.70108696E-05  9.70108696E-05  9.70108696E-05  9.70108696E-05  9.70108696E-05  9.70108696E-05  9.70108696E-05  9.70108696E-05  9.70108696E-05  9.70108696E-05  9.70108696E-05  9.70108696E-05  9.70108696E-05  9.70108696E-05  9.70108696E-05  9.70108696E-05  9.70108696E-05  9.70108696E-05  9.70108696E-05  9.70108696E-05  9.70108696E-05  9.70108696E-05  9.70108696E-05  9.70108696E-05  9.70108696E-05  9.70108696E-05  9.70108696E-05  9.70108696E-05  9.70108696E-05  9.70108696E-05  9.70108696E-05  9.70108696E-05  9.70108696E-05  9.70108696E-05  9.70108696E-05  9.70108696E-05  9.70108696E-05  9.70108696E-05  9.70108696E-05  9.70108696E-05  9.70108696E-05  9.70108696E-05  9.70108696E-05  9.70108696E-05  9.70108696E-05  9.70108696E-05  9.70108696E-05  9.70108696E-05  9.70108696E-05  9.70108696E-05  9.70108696E-05  9.70108696E-05  9.70108696E-05  9.70108696E-05  9.70108696E-05  9.70108696E-05  9.70108696E-05  9.70108696E-05  9.70108696E-05  9.70108696E-05  9.70108696E-05  9.70108696E-05  9.70108696E-05  9.70108696E-05  9.70108696E-05  9.70108696E-05  9.70108696E-05  9.70108696E-05  9.70108696E-05  9.70108696E-05  9.70108696E-05  9.70108696E-05  9.70108696E-05  9.70108696E-05  9.70108696E-05  9.70108696E-05  9.70108696E-05  9.70108696E-05  9.70108696E-05  9.70108696E-05  9.70108696E-05  9.70108696E-05  9.70108696E-05  9.70108696E-05  9.70108696E-05  9.70108696E-05  9.70108696E-05  9.70108696E-05
  MP_CONC
    INTERNAL  FACTOR  1.0
         0.50000000       0.50000000       0.50000000       0.50000000       0.50000000       0.50000000       0.50000000       0.50000000       0.50000000       0.50000000       0.50000000       0.50000000       0.50000000       0.50000000       0.50000000       0.50000000       0.50000000       0.50000000       0.50000000       0.50000000       0.50000000       0.50000000       0.50000000       0.50000000       0.50000000       0.50000000       0.50000000       0.50000000       0.50000000       0.50000000       0.50000000       0.50000000       0.50000000       0.50000000       0.50000000       0.50000000       0.50000000       0.50000000       0.50000000       0.50000000       0.50000000       0.50000000       0.50000000       0.50000000       0.50000000       0.50000000       0.50000000       0.50000000       0.50000000       0.50000000       0.50000000       0.00000000       0.00000000       0.00000000       0.00000000       0.00000000       0.00000000       0.00000000       0.00000000       0.00000000       0.00000000       0.00000000       0.00000000       0.00000000       0.00000000       0.00000000       0.00000000       0.00000000       0.00000000       0.00000000       0.00000000       0.00000000       0.00000000       0.00000000       0.00000000       0.00000000       0.00000000       0.00000000       0.00000000       0.00000000       0.00000000       0.00000000       0.00000000       0.00000000       0.00000000       0.00000000       0.00000000       0.00000000       0.00000000       0.00000000       0.00000000       0.00000000       0.00000000       0.00000000       0.00000000       0.00000000       0.00000000       0.00000000       0.00000000       0.00000000       0.00000000       0.00000000       0.00000000       0.00000000       0.00000000       0.00000000       0.00000000       0.00000000       0.00000000       0.00000000       0.00000000       0.00000000       0.00000000       0.00000000       0.00000000       0.00000000       0.00000000       0.00000000       0.00000000       0.00000000
END period  7

BEGIN period  8
  recharge
    INTERNAL  FACTOR  1.0