# File generated by Flopy version 3.9.5 on 05/11/2026 at 06:10:03.
BEGIN options
  auxiliary  SALT_CONC  MP_CONC
END options

BEGIN dimensions
  MAXBOUND  185
END dimensions

BEGIN period  1
END period  1

BEGIN period  2
  4 1 23 -2.26994135E-03 0.00000000E+00 0.00000000E+00
  5 1 23 -2.26994135E-03 0.00000000E+00 0.00000000E+00
  6 1 23 -2.26994135E-03 0.00000000E+00 0.00000000E+00
  7 1 23 -2.26994135E-03 0.00000000E+00 0.00000000E+00
  8 1 23 -2.26994135E-03 0.00000000E+00 0.00000000E+00
  9 1 23 -2.26994135E-03 0.00000000E+00 0.00000000E+00
  10 1 23 -2.26994135E-03 0.00000000E+00 0.00000000E+00
  11 1 23 -2.26994135E-03 0.00000000E+00 0.00000000E+00
  12 1 23 -2.26994135E-03 0.00000000E+00 0.00000000E+00
  13 1 23 -2.26994135E-03 0.00000000E+00 0.00000000E+00
  14 1 23 -2.26994135E-03 0.00000000E+00 0.00000000E+00
  15 1 23 -2.26994135E-03 0.00000000E+00 0.00000000E+00
  16 1 23 -2.26994135E-03 0.00000000E+00 0.00000000E+00
  17 1 23 -2.26994135E-03 0.00000000E+00 0.00000000E+00
  18 1 23 -2.26994135E-03 0.00000000E+00 0.00000000E+00
  19 1 23 -2.26994135E-03 0.00000000E+00 0.00000000E+00
  20 1 23 -2.26994135E-03 0.00000000E+00 0.00000000E+00
  21 1 23 -2.26994135E-03 0.00000000E+00 0.00000000E+00
  22 1 23 -2.26994135E-03 0.00000000E+00 0.00000000E+00
  23 1 23 -2.26994135E-03 0.00000000E+00 0.00000000E+00
  24 1 23 -2.26994135E-03 0.00000000E+00 0.00000000E+00
  25 1 23 -2.26994135E-03 0.00000000E+00 0.00000000E+00
  26 1 23 -2.26994135E-03 0.00000000E+00 0.00000000E+00
  27 1 23 -2.26994135E-03 0.00000000E+00 0.00000000E+00
  28 1 23 -2.26994135E-03 0.00000000E+00 0.00000000E+00
  29 1 23 -2.26994135E-03 0.00000000E+00 0.00000000E+00
  30 1 23 -2.26994135E-03 0.00000000E+00 0.00000000E+00
  31 1 23 -2.26994135E-03 0.00000000E+00 0.00000000E+00
  32 1 23 -2.26994135E-03 0.00000000E+00 0.00000000E+00
  33 1 23 -2.26994135E-03 0.00000000E+00 0.00000000E+00
  34 1 23 -2.26994135E-03 0.00000000E+00 0.00000000E+00
  35 1 23 -2.26994135E-03 0.00000000E+00 0.00000000E+00
  36 1 23 -2.26994135E-03 0.00000000E+00 0.00000000E+00
  37 1 23 -2.26994135E-03 0.00000000E+00 0.00000000E+00
  38 1 23 -2.26994135E-03 0.00000000E+00 0.00000000E+00
  39 1 23 -2.26994135E-03 0.00000000E+00 0.00000000E+00
  40 1 23 -2.26994135E-03 0.00000000E+00 0.00000000E+00
  4 1 36 -4.53988270E-03 0.00000000E+00 0.00000000E+00
  5 1 36 -4.53988270E-03 0.00000000E+00 0.00000000E+00
  6 1 36 -4.53988270E-03 0.00000000E+00 0.00000000E+00
  7 1 36 -4.53988270E-03 0.00000000E+00 0.00000000E+00
  8 1 36 -4.53988270E-03 0.00000000E+00 0.00000000E+00
  9 1 36 -4.53988270E-03 0.00000000E+00 0.00000000E+00
  10 1 36 -4.53988270E-03 0.00000000E+00 0.00000000E+00
  11 1 36 -4.53988270E-03 0.00000000E+00 0.00000000E+00
  12 1 36 -4.53988270E-03 0.00000000E+00 0.00000000E+00
  13 1 36 -4.53988270E-03 0.00000000E+00 0.00000000E+00
  14 1 36 -4.53988270E-03 0.00000000E+00 0.00000000E+00
  15 1 36 -4.53988270E-03 0.00000000E+00 0.00000000E+00
  16 1 36 -4.53988270E-03 0.00000000E+00 0.00000000E+00
  17 1 36 -4.53988270E-03 0.00000000E+00 0.00000000E+00
  18 1 36 -4.53988270E-03 0.00000000E+00 0.00000000E+00
  19 1 36 -4.53988270E-03 0.00000000E+00 0.00000000E+00
  20 1 36 -4.53988270E-03 0.00000000E+00 0.00000000E+00
  21 1 36 -4.53988270E-03 0.00000000E+00 0.00000000E+00
  22 1 36 -4.53988270E-03 0.00000000E+00 0.00000000E+00
  23 1 36 -4.53988270E-03 0.00000000E+00 0.00000000E+00
  24 1 36 -4.53988270E-03 0.00000000E+00 0.00000000E+00
  25 1 36 -4.53988270E-03 0.00000000E+00 0.00000000E+00
  26 1 36 -4.53988270E-03 0.00000000E+00 0.00000000E+00
  27 1 36 -4.53988270E-03 0.00000000E+00 0.00000000E+00
  28 1 36 -4.53988270E-03 0.00000000E+00 0.00000000E+00
  29 1 36 -4.53988270E-03 0.00000000E+00 0.00000000E+00
  30 1 36 -4.53988270E-03 0.00000000E+00 0.00000000E+00
  31 1 36 -4.53988270E-03 0.00000000E+00 0.00000000E+00
  32 1 36 -4.53988270E-03 0.00000000E+00 0.00000000E+00
  33 1 36 -4.53988270E-03 0.00000000E+00 0.00000000E+00
  34 1 36 -4.53988270E-03 0.00000000E+00 0.00000000E+00
  35 1 36 -4.53988270E-03 0.00000000E+00 0.00000000E+00
  36 1 36 -4.53988270E-03 0.00000000E+00 0.00000000E+00
  37 1 36 -4.53988270E-03 0.00000000E+00 0.00000000E+00
  38 1 36 -4.53988270E-03 0.00000000E+00 0.00000000E+00
  39 1 36 -4.53988270E-03 0.00000000E+00 0.00000000E+00
  40 1 36 -4.53988270E-03 0.00000000E+00 0.00000000E+00
  4 1 61 -9.83641252E-03 0.00000000E+00 0.00000000E+00
  5 1 61 -9.83641252E-03 0.00000000E+00 0.00000000E+00
  6 1 61 -9.83641252E-03 0.00000000E+00 0.00000000E+00
  7 1 61 -9.83641252E-03 0.00000000E+00 0.00000000E+00
  8 1 61 -9.83641252E-03 0.00000000E+00 0.00000000E+00
  9 1 61 -9.83641252E-03 0.00000000E+00 0.00000000E+00
  10 1 61 -9.83641252E-03 0.00000000E+00 0.00000000E+00
  11 1 61 -9.83641252E-03 0.00000000E+00 0.00000000E+00
  12 1 61 -9.83641252E-03 0.00000000E+00 0.00000000E+00
  13 1 61 -9.83641252E-03 0.00000000E+00 0.00000000E+00
  14 1 61 -9.83641252E-03 0.00000000E+00 0.00000000E+00
  15 1 61 -9.83641252E-03 0.00000000E+00 0.00000000E+00
  16 1 61 -9.83641252E-03 0.00000000E+00 0.00000000E+00
  17 1 61 -9.83641252E-03 0.00000000E+00 0.00000000E+00
  18 1 61 -9.83641252E-03 0.00000000E+00 0.00000000E+00
  19 1 61 -9.83641252E-03 0.00000000E+00 0.00000000E+00
  20 1 61 -9.83641252E-03 0.00000000E+00 0.00000000E+00
  21 1 61 -9.83641252E-03 0.00000000E+00 0.00000000E+00
  22 1 61 -9.83641252E-03 0.00000000E+00 0.00000000E+00
  23 1 61 -9.83641252E-03 0.00000000E+00 0.00000000E+00
  24 1 61 -9.83641252E-03 0.00000000E+00 0.00000000E+00
  25 1 61 -9.83641252E-03 0.00000000E+00 0.00000000E+00
  26 1 61 -9.83641252E-03 0.00000000E+00 0.00000000E+00
  27 1 61 -9.83641252E-03 0.00000000E+00 0.00000000E+00
  28 1 61 -9.83641252E-03 0.00000000E+00 0.00000000E+00
  29 1 61 -9.83641252E-03 0.00000000E+00 0.00000000E+00
  30 1 61 -9.83641252E-03 0.00000000E+00 0.00000000E+00
  31 1 61 -9.83641252E-03 0.00000000E+00 0.00000000E+00
  32 1 61 -9.83641252E-03 0.00000000E+00 0.00000000E+00
  33 1 61 -9.83641252E-03 0.00000000E+00 0.00000000E+00
  34 1 61 -9.83641252E-03 0.00000000E+00 0.00000000E+00
  35 1 61 -9.83641252E-03 0.00000000E+00 0.00000000E+00
  36 1 61 -9.83641252E-03 0.00000000E+00 0.00000000E+00
  37 1 61 -9.83641252E-03 0.00000000E+00 0.00000000E+00
  38 1 61 -9.83641252E-03 0.00000000E+00 0.00000000E+00
  39 1 61 -9.83641252E-03 0.00000000E+00 0.00000000E+00
  40 1 61 -9.83641252E-03 0.00000000E+00 0.00000000E+00
  4 1 80 -1.21063539E-02 0.00000000E+00 0.00000000E+00
  5 1 80 -1.21063539E-02 0.00000000E+00 0.00000000E+00
  6 1 80 -1.21063539E-02 0.00000000E+00 0.00000000E+00
  7 1 80 -1.21063539E-02 0.00000000E+00 0.00000000E+00
  8 1 80 -1.21063539E-02 0.00000000E+00 0.00000000E+00
  9 1 80 -1.21063539E-02 0.00000000E+00 0.00000000E+00
  10 1 80 -1.21063539E-02 0.00000000E+00 0.00000000E+00
  11 1 80 -1.21063539E-02 0.00000000E+00 0.00000000E+00
  12 1 80 -1.21063539E-02 0.00000000E+00 0.00000000E+00
  13 1 80 -1.21063539E-02 0.00000000E+00 0.00000000E+00
  14 1 80 -1.21063539E-02 0.00000000E+00 0.00000000E+00
  15 1 80 -1.21063539E-02 0.00000000E+00 0.00000000E+00
  16 1 80 -1.21063539E-02 0.00000000E+00 0.00000000E+00
  17 1 80 -1.21063539E-02 0.00000000E+00 0.00000000E+00
  18 1 80 -1.21063539E-02 0.00000000E+00 0.00000000E+00
  19 1 80 -1.21063539E-02 0.00000000E+00 0.00000000E+00
  20 1 80 -1.21063539E-02 0.00000000E+00 0.00000000E+00
  21 1 80 -1.21063539E-02 0.00000000E+00 0.00000000E+00
  22 1 80 -1.21063539E-02 0.00000000E+00 0.00000000E+00
  23 1 80 -1.21063539E-02 0.00000000E+00 0.00000000E+00
  24 1 80 -1.21063539E-02 0.00000000E+00 0.00000000E+00
  25 1 80 -1.21063539E-02 0.00000000E+00 0.00000000E+00
  26 1 80 -1.21063539E-02 0.00000000E+00 0.00000000E+00
  27 1 80 -1.21063539E-02 0.00000000E+00 0.00000000E+00
  28 1 80 -1.21063539E-02 0.00000000E+00 0.00000000E+00
  29 1 80 -1.21063539E-02 0.00000000E+00 0.00000000E+00
  30 1 80 -1.21063539E-02 0.00000000E+00 0.00000000E+00
  31 1 80 -1.21063539E-02 0.00000000E+00 0.00000000E+00
  32 1 80 -1.21063539E-02 0.00000000E+00 0.00000000E+00
  33 1 80 -1.21063539E-02 0.00000000E+00 0.00000000E+00
  34 1 80 -1.21063539E-02 0.00000000E+00 0.00000000E+00
  35 1 80 -1.21063539E-02 0.00000000E+00 0.00000000E+00
  36 1 80 -1.21063539E-02 0.00000000E+00 0.00000000E+00
  37 1 80 -1.21063539E-02 0.00000000E+00 0.00000000E+00
  38 1 80 -1.21063539E-02 0.00000000E+00 0.00000000E+00
  39 1 80 -1.21063539E-02 0.00000000E+00 0.00000000E+00
  40 1 80 -1.21063539E-02 0.00000000E+00 0.00000000E+00
  4 1 96 -9.07976541E-03 0.00000000E+00 0.00000000E+00
  5 1 96 -9.07976541E-03 0.00000000E+00 0.00000000E+00
  6 1 96 -9.07976541E-03 0.00000000E+00 0.00000000E+00
  7 1 96 -9.07976541E-03 0.00000000E+00 0.00000000E+00
  8 1 96 -9.07976541E-03 0.00000000E+00 0.00000000E+00
  9 1 96 -9.07976541E-03 0.00000000E+00 0.00000000E+00
  10 1 96 -9.07976541E-03 0.00000000E+00 0.00000000E+00
  11 1 96 -9.07976541E-03 0.00000000E+00 0.00000000E+00
  12 1 96 -9.07976541E-03 0.00000000E+00 0.00000000E+00
  13 1 96 -9.07976541E-03 0.00000000E+00 0.00000000E+00
  14 1 96 -9.07976541E-03 0.00000000E+00 0.00000000E+00
  15 1 96 -9.07976541E-03 0.00000000E+00 0.00000000E+00
  16 1 96 -9.07976541E-03 0.00000000E+00 0.00000000E+00
  17 1 96 -9.07976541E-03 0.00000000E+00 0.00000000E+00
  18 1 96 -9.07976541E-03 0.00000000E+00 0.00000000E+00
  19 1 96 -9.07976541E-03 0.00000000E+00 0.00000000E+00
  20 1 96 -9.07976541E-03 0.00000000E+00 0.00000000E+00
  21 1 96 -9.07976541E-03 0.00000000E+00 0.00000000E+00
  22 1 96 -9.07976541E-03 0.00000000E+00 0.00000000E+00
  23 1 96 -9.07976541E-03 0.00000000E+00 0.00000000E+00
  24 1 96 -9.07976541E-03 0.00000000E+00 0.00000000E+00
  25 1 96 -9.07976541E-03 0.00000000E+00 0.00000000E+00
  26 1 96 -9.07976541E-03 0.00000000E+00 0.00000000E+00
  27 1 96 -9.07976541E-03 0.00000000E+00 0.00000000E+00
  28 1 96 -9.07976541E-03 0.00000000E+00 0.00000000E+00
  29 1 96 -9.07976541E-03 0.00000000E+00 0.00000000E+00
  30 1 96 -9.07976541E-03 0.00000000E+00 0.00000000E+00
  31 1 96 -9.07976541E-03 0.00000000E+00 0.00000000E+00
  32 1 96 -9.07976541E-03 0.00000000E+00 0.00000000E+00
  33 1 96 -9.07976541E-03 0.00000000E+00 0.00000000E+00
  34 1 96 -9.07976541E-03 0.00000000E+00 0.00000000E+00
  35 1 96 -9.07976541E-03 0.00000000E+00 0.00000000E+00
  36 1 96 -9.07976541E-03 0.00000000E+00 0.00000000E+00
  37 1 96 -9.07976541E-03 0.00000000E+00 0.00000000E+00
  38 1 96 -9.07976541E-03 0.00000000E+00 0.00000000E+00
  39 1 96 -9.07976541E-03 0.00000000E+00 0.00000000E+00
  40 1 96 -9.07976541E-03 0.00000000E+00 0.00000000E+00
END period  2

BEGIN period  3
  4 1 23 -2.26994135E-03 0.00000000E+00 0.00000000E+00
  5 1 23 -2.26994135E-03 0.00000000E+00 0.00000000E+00
  6 1 23 -2.26994135E-03 0.00000000E+00 0.00000000E+00
  7 1 23 -2.26994135E-03 0.00000000E+00 0.00000000E+00
  8 1 23 -2.26994135E-03 0.00000000E+00 0.00000000E+00
  9 1 23 -2.26994135E-03 0.00000000E+00 0.00000000E+00
  10 1 23 -2.26994135E-03 0.00000000E+00 0.00000000E+00
  11 1 23 -2.26994135E-03 0.00000000E+00 0.00000000E+00
  12 1 23 -2.26994135E-03 0.00000000E+00 0.00000000E+00
  13 1 23 -2.26994135E-03 0.00000000E+00 0.00000000E+00
  14 1 23 -2.26994135E-03 0.00000000E+00 0.00000000E+00
  15 1 23 -2.26994135E-03 0.00000000E+00 0.00000000E+00
  16 1 23 -2.26994135E-03 0.00000000E+00 0.00000000E+00
  17 1 23 -2.26994135E-03 0.00000000E+00 0.00000000E+00
  18 1 23 -2.26994135E-03 0.00000000E+00 0.00000000E+00
  19 1 23 -2.26994135E-03 0.00000000E+00 0.00000000E+00
  20 1 23 -2.26994135E-03 0.00000000E+00 0.00000000E+00
  21 1 23 -2.26994135E-03 0.00000000E+00 0.00000000E+00
  22 1 23 -2.26994135E-03 0.00000000E+00 0.00000000E+00
  23 1 23 -2.26994135E-03 0.00000000E+00 0.00000000E+00
  24 1 23 -2.26994135E-03 0.00000000E+00 0.00000000E+00
  25 1 23 -2.26994135E-03 0.00000000E+00 0.00000000E+00
  26 1 23 -2.26994135E-03 0.00000000E+00 0.00000000E+00
  27 1 23 -2.26994135E-03 0.00000000E+00 0.00000000E+00
  28 1 23 -2.26994135E-03 0.00000000E+00 0.00000000E+00
  29 1 23 -2.26994135E-03 0.00000000E+00 0.00000000E+00
  30 1 23 -2.26994135E-03 0.00000000E+00 0.00000000E+00
  31 1 23 -2.26994135E-03 0.00000000E+00 0.00000000E+00
  32 1 23 -2.26994135E-03 0.00000000E+00 0.00000000E+00
  33 1 23 -2.26994135E-03 0.00000000E+00 0.00000000E+00
  34 1 23 -2.26994135E-03 0.00000000E+00 0.00000000E+00
  35 1 23 -2.26994135E-03 0.00000000E+00 0.00000000E+00
  36 1 23 -2.26994135E-03 0.00000000E+00 0.00000000E+00
  37 1 23 -2.26994135E-03 0.00000000E+00 0.00000000E+00
  38 1 23 -2.26994135E-03 0.00000000E+00 0.00000000E+00
  39 1 23 -2.26994135E-03 0.00000000E+00 0.00000000E+00
  40 1 23 -2.26994135E-03 0.00000000E+00 0.00000000E+00
  4 1 36 -4.53988270E-03 0.00000000E+00 0.00000000E+00
  5 1 36 -4.53988270E-03 0.00000000E+00 0.00000000E+00
  6 1 36 -4.53988270E-03 0.00000000E+00 0.00000000E+00
  7 1 36 -4.53988270E-03 0.00000000E+00 0.00000000E+00
  8 1 36 -4.53988270E-03 0.00000000E+00 0.00000000E+00
  9 1 36 -4.53988270E-03 0.00000000E+00 0.00000000E+00
  10 1 36 -4.53988270E-03 0.00000000E+00 0.00000000E+00
  11 1 36 -4.53988270E-03 0.00000000E+00 0.00000000E+00
  12 1 36 -4.53988270E-03 0.00000000E+00 0.00000000E+00
  13 1 36 -4.53988270E-03 0.00000000E+00 0.00000000E+00
  14 1 36 -4.53988270E-03 0.00000000E+00 0.00000000E+00
  15 1 36 -4.53988270E-03 0.00000000E+00 0.00000000E+00
  16 1 36 -4.53988270E-03 0.00000000E+00 0.00000000E+00
  17 1 36 -4.53988270E-03 0.00000000E+00 0.00000000E+00
  18 1 36 -4.53988270E-03 0.00000000E+00 0.00000000E+00
  19 1 36 -4.53988270E-03 0.00000000E+00 0.00000000E+00
  20 1 36 -4.53988270E-03 0.00000000E+00 0.00000000E+00
  21 1 36 -4.53988270E-03 0.00000000E+00 0.00000000E+00
  22 1 36 -4.53988270E-03 0.00000000E+00 0.00000000E+00
  23 1 36 -4.53988270E-03 0.00000000E+00 0.00000000E+00
  24 1 36 -4.53988270E-03 0.00000000E+00 0.00000000E+00
  25 1 36 -4.53988270E-03 0.00000000E+00 0.00000000E+00
  26 1 36 -4.53988270E-03 0.00000000E+00 0.00000000E+00
  27 1 36 -4.53988270E-03 0.00000000E+00 0.00000000E+00
  28 1 36 -4.53988270E-03 0.00000000E+00 0.00000000E+00
  29 1 36 -4.53988270E-03 0.00000000E+00 0.00000000E+00
  30 1 36 -4.53988270E-03 0.00000000E+00 0.00000000E+00
  31 1 36 -4.53988270E-03 0.00000000E+00 0.00000000E+00
  32 1 36 -4.53988270E-03 0.00000000E+00 0.00000000E+00
  33 1 36 -4.53988270E-03 0.00000000E+00 0.00000000E+00
  34 1 36 -4.53988270E-03 0.00000000E+00 0.00000000E+00
  35 1 36 -4.53988270E-03 0.00000000E+00 0.00000000E+00
  36 1 36 -4.53988270E-03 0.00000000E+00 0.00000000E+00
  37 1 36 -4.53988270E-03 0.00000000E+00 0.00000000E+00
  38 1 36 -4.53988270E-03 0.00000000E+00 0.00000000E+00
  39 1 36 -4.53988270E-03 0.00000000E+00 0.00000000E+00
  40 1 36 -4.53988270E-03 0.00000000E+00 0.00000000E+00
  4 1 61 -9.83641252E-03 0.00000000E+00 0.00000000E+00
  5 1 61 -9.83641252E-03 0.00000000E+00 0.00000000E+00
  6 1 61 -9.83641252E-03 0.00000000E+00 0.00000000E+00
  7 1 61 -9.83641252E-03 0.00000000E+00 0.00000000E+00
  8 1 61 -9.83641252E-03 0.00000000E+00 0.00000000E+00
  9 1 61 -9.83641252E-03 0.00000000E+00 0.00000000E+00
  10 1 61 -9.83641252E-03 0.00000000E+00 0.00000000E+00
  11 1 61 -9.83641252E-03 0.00000000E+00 0.00000000E+00
  12 1 61 -9.83641252E-03 0.00000000E+00 0.00000000E+00
  13 1 61 -9.83641252E-03 0.00000000E+00 0.00000000E+00
  14 1 61 -9.83641252E-03 0.00000000E+00 0.00000000E+00
  15 1 61 -9.83641252E-03 0.00000000E+00 0.00000000E+00
  16 1 61 -9.83641252E-03 0.00000000E+00 0.00000000E+00
  17 1 61 -9.83641252E-03 0.00000000E+00 0.00000000E+00
  18 1 61 -9.83641252E-03 0.00000000E+00 0.00000000E+00
  19 1 61 -9.83641252E-03 0.00000000E+00 0.00000000E+00
  20 1 61 -9.83641252E-03 0.00000000E+00 0.00000000E+00
  21 1 61 -9.83641252E-03 0.00000000E+00 0.00000000E+00
  22 1 61 -9.83641252E-03 0.00000000E+00 0.00000000E+00
  23 1 61 -9.83641252E-03 0.00000000E+00 0.00000000E+00
  24 1 61 -9.83641252E-03 0.00000000E+00 0.00000000E+00
  25 1 61 -9.83641252E-03 0.00000000E+00 0.00000000E+00
  26 1 61 -9.83641252E-03 0.00000000E+00 0.00000000E+00
  27 1 61 -9.83641252E-03 0.00000000E+00 0.00000000E+00
  28 1 61 -9.83641252E-03 0.00000000E+00 0.00000000E+00
  29 1 61 -9.83641252E-03 0.00000000E+00 0.00000000E+00
  30 1 61 -9.83641252E-03 0.00000000E+00 0.00000000E+00
  31 1 61 -9.83641252E-03 0.00000000E+00 0.00000000E+00
  32 1 61 -9.83641252E-03 0.00000000E+00 0.00000000E+00
  33 1 61 -9.83641252E-03 0.00000000E+00 0.00000000E+00
  34 1 61 -9.83641252E-03 0.00000000E+00 0.00000000E+00
  35 1 61 -9.83641252E-03 0.00000000E+00 0.00000000E+00
  36 1 61 -9.83641252E-03 0.00000000E+00 0.00000000E+00
  37 1 61 -9.83641252E-03 0.00000000E+00 0.00000000E+00
  38 1 61 -9.83641252E-03 0.00000000E+00 0.00000000E+00
  39 1 61 -9.83641252E-03 0.00000000E+00 0.00000000E+00
  40 1 61 -9.83641252E-03 0.00000000E+00 0.00000000E+00
  4 1 80 -1.21063539E-02 0.00000000E+00 0.00000000E+00
  5 1 80 -1.21063539E-02 0.00000000E+00 0.00000000E+00
  6 1 80 -1.21063539E-02 0.00000000E+00 0.00000000E+00
  7 1 80 -1.21063539E-02 0.00000000E+00 0.00000000E+00
  8 1 80 -1.21063539E-02 0.00000000E+00 0.00000000E+00
  9 1 80 -1.21063539E-02 0.00000000E+00 0.00000000E+00
  10 1 80 -1.21063539E-02 0.00000000E+00 0.00000000E+00
  11 1 80 -1.21063539E-02 0.00000000E+00 0.00000000E+00
  12 1 80 -1.21063539E-02 0.00000000E+00 0.00000000E+00
  13 1 80 -1.21063539E-02 0.00000000E+00 0.00000000E+00
  14 1 80 -1.21063539E-02 0.00000000E+00 0.00000000E+00
  15 1 80 -1.21063539E-02 0.00000000E+00 0.00000000E+00
  16 1 80 -1.21063539E-02 0.00000000E+00 0.00000000E+00
  17 1 80 -1.21063539E-02 0.00000000E+00 0.00000000E+00
  18 1 80 -1.21063539E-02 0.00000000E+00 0.00000000E+00
  19 1 80 -1.21063539E-02 0.00000000E+00 0.00000000E+00
  20 1 80 -1.21063539E-02 0.00000000E+00 0.00000000E+00
  21 1 80 -1.21063539E-02 0.00000000E+00 0.00000000E+00
  22 1 80 -1.21063539E-02 0.00000000E+00 0.00000000E+00
  23 1 80 -1.21063539E-02 0.00000000E+00 0.00000000E+00
  24 1 80 -1.21063539E-02 0.00000000E+00 0.00000000E+00
  25 1 80 -1.21063539E-02 0.00000000E+00 0.00000000E+00
  26 1 80 -1.21063539E-02 0.00000000E+00 0.00000000E+00
  27 1 80 -1.21063539E-02 0.00000000E+00 0.00000000E+00
  28 1 80 -1.21063539E-02 0.00000000E+00 0.00000000E+00
  29 1 80 -1.21063539E-02 0.00000000E+00 0.00000000E+00
  30 1 80 -1.21063539E-02 0.00000000E+00 0.00000000E+00
  31 1 80 -1.21063539E-02 0.00000000E+00 0.00000000E+00
  32 1 80 -1.21063539E-02 0.00000000E+00 0.00000000E+00
  33 1 80 -1.21063539E-02 0.00000000E+00 0.00000000E+00
  34 1 80 -1.21063539E-02 0.00000000E+00 0.00000000E+00
  35 1 80 -1.21063539E-02 0.00000000E+00 0.00000000E+00
  36 1 80 -1.21063539E-02 0.00000000E+00 0.00000000E+00
  37 1 80 -1.21063539E-02 0.00000000E+00 0.00000000E+00
  38 1 80 -1.21063539E-02 0.00000000E+00 0.00000000E+00
  39 1 80 -1.21063539E-02 0.00000000E+00 0.00000000E+00
  40 1 80 -1.21063539E-02 0.00000000E+00 0.00000000E+00
  4 1 96 -9.07976541E-03 0.00000000E+00 0.00000000E+00
  5 1 96 -9.07976541E-03 0.00000000E+00 0.00000000E+00
  6 1 96 -9.07976541E-03 0.00000000E+00 0.00000000E+00
  7 1 96 -9.07976541E-03 0.00000000E+00 0.00000000E+00
  8 1 96 -9.07976541E-03 0.00000000E+00 0.00000000E+00
  9 1 96 -9.07976541E-03 0.00000000E+00 0.00000000E+00
  10 1 96 -9.07976541E-03 0.00000000E+00 0.00000000E+00
  11 1 96 -9.07976541E-03 0.00000000E+00 0.00000000E+00
  12 1 96 -9.07976541E-03 0.00000000E+00 0.00000000E+00
  13 1 96 -9.07976541E-03 0.00000000E+00 0.00000000E+00
  14 1 96 -9.07976541E-03 0.00000000E+00 0.00000000E+00
  15 1 96 -9.07976541E-03 0.00000000E+00 0.00000000E+00
  16 1 96 -9.07976541E-03 0.00000000E+00 0.00000000E+00
  17 1 96 -9.07976541E-03 0.00000000E+00 0.00000000E+00
  18 1 96 -9.07976541E-03 0.00000000E+00 0.00000000E+00
  19 1 96 -9.07976541E-03 0.00000000E+00 0.00000000E+00
  20 1 96 -9.07976541E-03 0.00000000E+00 0.00000000E+00
  21 1 96 -9.07976541E-03 0.00000000E+00 0.00000000E+00
  22 1 96 -9.07976541E-03 0.00000000E+00 0.00000000E+00
  23 1 96 -9.07976541E-03 0.00000000E+00 0.00000000E+00
  24 1 96 -9.07976541E-03 0.00000000E+00 0.00000000E+00
  25 1 96 -9.07976541E-03 0.00000000E+00 0.00000000E+00
  26 1 96 -9.07976541E-03 0.00000000E+00 0.00000000E+00
  27 1 96 -9.07976541E-03 0.00000000E+00 0.00000000E+00
  28 1 96 -9.07976541E-03 0.00000000E+00 0.00000000E+00
  29 1 96 -9.07976541E-03 0.00000000E+00 0.00000000E+00
  30 1 96 -9.07976541E-03 0.00000000E+00 0.00000000E+00
  31 1 96 -9.07976541E-03 0.00000000E+00 0.00000000E+00
  32 1 96 -9.07976541E-03 0.00000000E+00 0.00000000E+00
  33 1 96 -9.07976541E-03 0.00000000E+00 0.00000000E+00
  34 1 96 -9.07976541E-03 0.00000000E+00 0.00000000E+00
  35 1 96 -9.07976541E-03 0.00000000E+00 0.00000000E+00
  36 1 96 -9.07976541E-03 0.00000000E+00 0.00000000E+00
  37 1 96 -9.07976541E-03 0.00000000E+00 0.00000000E+00
  38 1 96 -9.07976541E-03 0.00000000E+00 0.00000000E+00
  39 1 96 -9.07976541E-03 0.00000000E+00 0.00000000E+00
  40 1 96 -9.07976541E-03 0.00000000E+00 0.00000000E+00
END period  3

BEGIN period  4
  4 1 23 -2.26994135E-03 0.00000000E+00 0.00000000E+00
  5 1 23 -2.26994135E-03 0.00000000E+00 0.00000000E+00
  6 1 23 -2.26994135E-03 0.00000000E+00 0.00000000E+00
  7 1 23 -2.26994135E-03 0.00000000E+00 0.00000000E+00
  8 1 23 -2.26994135E-03 0.00000000E+00 0.00000000E+00
  9 1 23 -2.26994135E-03 0.00000000E+00 0.00000000E+00
  10 1 23 -2.26994135E-03 0.00000000E+00 0.00000000E+00
  11 1 23 -2.26994135E-03 0.00000000E+00 0.00000000E+00
  12 1 23 -2.26994135E-03 0.00000000E+00 0.00000000E+00
  13 1 23 -2.26994135E-03 0.00000000E+00 0.00000000E+00
  14 1 23 -2.26994135E-03 0.00000000E+00 0.00000000E+00
  15 1 23 -2.26994135E-03 0.00000000E+00 0.00000000E+00
  16 1 23 -2.26994135E-03 0.00000000E+00 0.00000000E+00
  17 1 23 -2.26994135E-03 0.00000000E+00 0.00000000E+00
  18 1 23 -2.26994135E-03 0.00000000E+00 0.00000000E+00
  19 1 23 -2.26994135E-03 0.00000000E+00 0.00000000E+00
  20 1 23 -2.26994135E-03 0.00000000E+00 0.00000000E+00
  21 1 23 -2.26994135E-03 0.00000000E+00 0.00000000E+00
  22 1 23 -2.26994135E-03 0.00000000E+00 0.00000000E+00
  23 1 23 -2.26994135E-03 0.00000000E+00 0.00000000E+00
  24 1 23 -2.26994135E-03 0.00000000E+00 0.00000000E+00
  25 1 23 -2.26994135E-03 0.00000000E+00 0.00000000E+00
  26 1 23 -2.26994135E-03 0.00000000E+00 0.00000000E+00
  27 1 23 -2.26994135E-03 0.00000000E+00 0.00000000E+00
  28 1 23 -2.26994135E-03 0.00000000E+00 0.00000000E+00
  29 1 23 -2.26994135E-03 0.00000000E+00 0.00000000E+00
  30 1 23 -2.26994135E-03 0.00000000E+00 0.00000000E+00
  31 1 23 -2.26994135E-03 0.00000000E+00 0.00000000E+00
  32 1 23 -2.26994135E-03 0.00000000E+00 0.00000000E+00
  33 1 23 -2.26994135E-03 0.00000000E+00 0.00000000E+00
  34 1 23 -2.26994135E-03 0.00000000E+00 0.00000000E+00
  35 1 23 -2.26994135E-03 0.00000000E+00 0.00000000E+00
  36 1 23 -2.26994135E-03 0.00000000E+00 0.00000000E+00
  37 1 23 -2.26994135E-03 0.00000000E+00 0.00000000E+00
  38 1 23 -2.26994135E-03 0.00000000E+00 0.00000000E+00
  39 1 23 -2.26994135E-03 0.00000000E+00 0.00000000E+00
  40 1 23 -2.26994135E-03 0.00000000E+00 0.00000000E+00
  4 1 36 -4.53988270E-03 0.00000000E+00 0.00000000E+00
  5 1 36 -4.53988270E-03 0.00000000E+00 0.00000000E+00
  6 1 36 -4.53988270E-03 0.00000000E+00 0.00000000E+00
  7 1 36 -4.53988270E-03 0.00000000E+00 0.00000000E+00
  8 1 36 -4.53988270E-03 0.00000000E+00 0.00000000E+00
  9 1 36 -4.53988270E-03 0.00000000E+00 0.00000000E+00
  10 1 36 -4.53988270E-03 0.00000000E+00 0.00000000E+00
  11 1 36 -4.53988270E-03 0.00000000E+00 0.00000000E+00
  12 1 36 -4.53988270E-03 0.00000000E+00 0.00000000E+00
  13 1 36 -4.53988270E-03 0.00000000E+00 0.00000000E+00
  14 1 36 -4.53988270E-03 0.00000000E+00 0.00000000E+00
  15 1 36 -4.53988270E-03 0.00000000E+00 0.00000000E+00
  16 1 36 -4.53988270E-03 0.00000000E+00 0.00000000E+00
  17 1 36 -4.53988270E-03 0.00000000E+00 0.00000000E+00
  18 1 36 -4.53988270E-03 0.00000000E+00 0.00000000E+00
  19 1 36 -4.53988270E-03 0.00000000E+00 0.00000000E+00
  20 1 36 -4.53988270E-03 0.00000000E+00 0.00000000E+00
  21 1 36 -4.53988270E-03 0.00000000E+00 0.00000000E+00
  22 1 36 -4.53988270E-03 0.00000000E+00 0.00000000E+00
  23 1 36 -4.53988270E-03 0.00000000E+00 0.00000000E+00
  24 1 36 -4.53988270E-03 0.00000000E+00 0.00000000E+00
  25 1 36 -4.53988270E-03 0.00000000E+00 0.00000000E+00
  26 1 36 -4.53988270E-03 0.00000000E+00 0.00000000E+00
  27 1 36 -4.53988270E-03 0.00000000E+00 0.00000000E+00
  28 1 36 -4.53988270E-03 0.00000000E+00 0.00000000E+00
  29 1 36 -4.53988270E-03 0.00000000E+00 0.00000000E+00
  30 1 36 -4.53988270E-03 0.00000000E+00 0.00000000E+00
  31 1 36 -4.53988270E-03 0.00000000E+00 0.00000000E+00
  32 1 36 -4.53988270E-03 0.00000000E+00 0.00000000E+00
  33 1 36 -4.53988270E-03 0.00000000E+00 0.00000000E+00
  34 1 36 -4.53988270E-03 0.00000000E+00 0.00000000E+00
  35 1 36 -4.53988270E-03 0.00000000E+00 0.00000000E+00
  36 1 36 -4.53988270E-03 0.00000000E+00 0.00000000E+00
  37 1 36 -4.53988270E-03 0.00000000E+00 0.00000000E+00
  38 1 36 -4.53988270E-03 0.00000000E+00 0.00000000E+00
  39 1 36 -4.53988270E-03 0.00000000E+00 0.00000000E+00
  40 1 36 -4.53988270E-03 0.00000000E+00 0.00000000E+00
  4 1 61 -9.83641252E-03 0.00000000E+00 0.00000000E+00
  5 1 61 -9.83641252E-03 0.00000000E+00 0.00000000E+00
  6 1 61 -9.83641252E-03 0.00000000E+00 0.00000000E+00
  7 1 61 -9.83641252E-03 0.00000000E+00 0.00000000E+00
  8 1 61 -9.83641252E-03 0.00000000E+00 0.00000000E+00
  9 1 61 -9.83641252E-03 0.00000000E+00 0.00000000E+00
  10 1 61 -9.83641252E-03 0.00000000E+00 0.00000000E+00
  11 1 61 -9.83641252E-03 0.00000000E+00 0.00000000E+00
  12 1 61 -9.83641252E-03 0.00000000E+00 0.00000000E+00
  13 1 61 -9.83641252E-03 0.00000000E+00 0.00000000E+00
  14 1 61 -9.83641252E-03 0.00000000E+00 0.00000000E+00
  15 1 61 -9.83641252E-03 0.00000000E+00 0.00000000E+00
  16 1 61 -9.83641252E-03 0.00000000E+00 0.00000000E+00
  17 1 61 -9.83641252E-03 0.00000000E+00 0.00000000E+00
  18 1 61 -9.83641252E-03 0.00000000E+00 0.00000000E+00
  19 1 61 -9.83641252E-03 0.00000000E+00 0.00000000E+00
  20 1 61 -9.83641252E-03 0.00000000E+00 0.00000000E+00
  21 1 61 -9.83641252E-03 0.00000000E+00 0.00000000E+00
  22 1 61 -9.83641252E-03 0.00000000E+00 0.00000000E+00
  23 1 61 -9.83641252E-03 0.00000000E+00 0.00000000E+00
  24 1 61 -9.83641252E-03 0.00000000E+00 0.00000000E+00
  25 1 61 -9.83641252E-03 0.00000000E+00 0.00000000E+00
  26 1 61 -9.83641252E-03 0.00000000E+00 0.00000000E+00
  27 1 61 -9.83641252E-03 0.00000000E+00 0.00000000E+00
  28 1 61 -9.83641252E-03 0.00000000E+00 0.00000000E+00
  29 1 61 -9.83641252E-03 0.00000000E+00 0.00000000E+00
  30 1 61 -9.83641252E-03 0.00000000E+00 0.00000000E+00
  31 1 61 -9.83641252E-03 0.00000000E+00 0.00000000E+00
  32 1 61 -9.83641252E-03 0.00000000E+00 0.00000000E+00
  33 1 61 -9.83641252E-03 0.00000000E+00 0.00000000E+00
  34 1 61 -9.83641252E-03 0.00000000E+00 0.00000000E+00
  35 1 61 -9.83641252E-03 0.00000000E+00 0.00000000E+00
  36 1 61 -9.83641252E-03 0.00000000E+00 0.00000000E+00
  37 1 61 -9.83641252E-03 0.00000000E+00 0.00000000E+00
  38 1 61 -9.83641252E-03 0.00000000E+00 0.00000000E+00
  39 1 61 -9.83641252E-03 0.00000000E+00 0.00000000E+00
  40 1 61 -9.83641252E-03 0.00000000E+00 0.00000000E+00
  4 1 80 -1.21063539E-02 0.00000000E+00 0.00000000E+00
  5 1 80 -1.21063539E-02 0.00000000E+00 0.00000000E+00
  6 1 80 -1.21063539E-02 0.00000000E+00 0.00000000E+00
  7 1 80 -1.21063539E-02 0.00000000E+00 0.00000000E+00
  8 1 80 -1.21063539E-02 0.00000000E+00 0.00000000E+00
  9 1 80 -1.21063539E-02 0.00000000E+00 0.00000000E+00
  10 1 80 -1.21063539E-02 0.00000000E+00 0.00000000E+00
  11 1 80 -1.21063539E-02 0.00000000E+00 0.00000000E+00
  12 1 80 -1.21063539E-02 0.00000000E+00 0.00000000E+00
  13 1 80 -1.21063539E-02 0.00000000E+00 0.00000000E+00
  14 1 80 -1.21063539E-02 0.00000000E+00 0.00000000E+00
  15 1 80 -1.21063539E-02 0.00000000E+00 0.00000000E+00
  16 1 80 -1.21063539E-02 0.00000000E+00 0.00000000E+00
  17 1 80 -1.21063539E-02 0.00000000E+00 0.00000000E+00
  18 1 80 -1.21063539E-02 0.00000000E+00 0.00000000E+00
  19 1 80 -1.21063539E-02 0.00000000E+00 0.00000000E+00
  20 1 80 -1.21063539E-02 0.00000000E+00 0.00000000E+00
  21 1 80 -1.21063539E-02 0.00000000E+00 0.00000000E+00
  22 1 80 -1.21063539E-02 0.00000000E+00 0.00000000E+00
  23 1 80 -1.21063539E-02 0.00000000E+00 0.00000000E+00
  24 1 80 -1.21063539E-02 0.00000000E+00 0.00000000E+00
  25 1 80 -1.21063539E-02 0.00000000E+00 0.00000000E+00
  26 1 80 -1.21063539E-02 0.00000000E+00 0.00000000E+00
  27 1 80 -1.21063539E-02 0.00000000E+00 0.00000000E+00
  28 1 80 -1.21063539E-02 0.00000000E+00 0.00000000E+00
  29 1 80 -1.21063539E-02 0.00000000E+00 0.00000000E+00
  30 1 80 -1.21063539E-02 0.00000000E+00 0.00000000E+00
  31 1 80 -1.21063539E-02 0.00000000E+00 0.00000000E+00
  32 1 80 -1.21063539E-02 0.00000000E+00 0.00000000E+00
  33 1 80 -1.21063539E-02 0.00000000E+00 0.00000000E+00
  34 1 80 -1.21063539E-02 0.00000000E+00 0.00000000E+00
  35 1 80 -1.21063539E-02 0.00000000E+00 0.00000000E+00
  36 1 80 -1.21063539E-02 0.00000000E+00 0.00000000E+00
  37 1 80 -1.21063539E-02 0.00000000E+00 0.00000000E+00
  38 1 80 -1.21063539E-02 0.00000000E+00 0.00000000E+00
  39 1 80 -1.21063539E-02 0.00000000E+00 0.00000000E+00
  40 1 80 -1.21063539E-02 0.00000000E+00 0.00000000E+00
  4 1 96 -9.07976541E-03 0.00000000E+00 0.00000000E+00
  5 1 96 -9.07976541E-03 0.00000000E+00 0.00000000E+00
  6 1 96 -9.07976541E-03 0.00000000E+00 0.00000000E+00
  7 1 96 -9.07976541E-03 0.00000000E+00 0.00000000E+00
  8 1 96 -9.07976541E-03 0.00000000E+00 0.00000000E+00
  9 1 96 -9.07976541E-03 0.00000000E+00 0.00000000E+00
  10 1 96 -9.07976541E-03 0.00000000E+00 0.00000000E+00
  11 1 96 -9.07976541E-03 0.00000000E+00 0.00000000E+00
  12 1 96 -9.07976541E-03 0.00000000E+00 0.00000000E+00
  13 1 96 -9.07976541E-03 0.00000000E+00 0.00000000E+00
  14 1 96 -9.07976541E-03 0.00000000E+00 0.00000000E+00
  15 1 96 -9.07976541E-03 0.00000000E+00 0.00000000E+00
  16 1 96 -9.07976541E-03 0.00000000E+00 0.00000000E+00
  17 1 96 -9.07976541E-03 0.00000000E+00 0.00000000E+00