# File generated by Flopy version 3.9.5 on 05/11/2026 at 06:10:06.
BEGIN options
END options

BEGIN griddata
  strt
    CONSTANT       0.00000000
END griddata

