# File generated by Flopy version 3.9.5 on 05/11/2026 at 06:10:06.
BEGIN options
  SCHEME  tvd
END options

