# File generated by Flopy version 3.9.5 on 05/11/2026 at 06:10:05.
BEGIN options
  SAVE_FLOWS
END options

BEGIN packages
  DIS6  gwt_salt.dis  dis
  IC6  gwt_salt.ic  ic
  MST6  gwt_salt.mst  mst
  ADV6  gwt_salt.adv  adv
  DSP6  gwt_salt.dsp  dsp
  CNC6  gwt_salt.cnc  cnc_salt
  SSM6  gwt_salt.ssm  ssm_salt
  OC6  gwt_salt.oc  oc
END packages

