# File generated by Flopy version 3.9.5 on 05/11/2026 at 06:10:06.
BEGIN options
END options

BEGIN sources
  SEA_CHD  AUX  SALT_CONC
  INLAND_GHB  AUX  SALT_CONC
  PUMP  AUX  SALT_CONC
END sources

