# File generated by Flopy version 3.9.5 on 05/11/2026 at 06:10:06.
BEGIN options
END options

BEGIN griddata
  diffc
    CONSTANT       0.00000000
  alh
    CONSTANT       2.50000000
  ath1
    CONSTANT       0.25000000
  atv
    CONSTANT       0.25000000
END griddata

