# File generated by Flopy version 3.9.5 on 05/11/2026 at 06:10:06.
BEGIN options
  SAVE_FLOWS
END options

BEGIN packages
  DIS6  gwt_mp.dis  dis
  IC6  gwt_mp.ic  ic
  MST6  gwt_mp.mst  mst
  ADV6  gwt_mp.adv  adv
  DSP6  gwt_mp.dsp  dsp
  SSM6  gwt_mp.ssm  ssm_mp
  OC6  gwt_mp.oc  oc
END packages

