# File generated by Flopy version 3.9.5 on 05/11/2026 at 06:10:05.
BEGIN options
END options

BEGIN griddata
  porosity
    CONSTANT       0.30000000
END griddata

