# File generated by Flopy version 3.9.5 on 05/11/2026 at 06:10:06.
BEGIN options
  FIRST_ORDER_DECAY
  SORPTION  linear
END options

BEGIN griddata
  porosity
    CONSTANT       0.30000000
  decay  LAYERED
    INTERNAL  FACTOR  1.0
      7.68045724E-05  7.81532517E-05  7.95418366E-05  8.09718011E-05  8.24446840E-05  8.39620923E-05  8.55257039E-05  8.71372723E-05  8.87986294E-05  9.05116905E-05  9.22784578E-05  9.41010256E-05  9.59815847E-05  9.79224275E-05  9.99259539E-05  1.01994676E-04  1.04131227E-04  1.06338361E-04  1.08618969E-04  1.10976080E-04  1.13412868E-04  1.15932665E-04  1.18538965E-04  1.21235437E-04  1.24025931E-04  1.26914491E-04  1.29905366E-04  1.33003021E-04  1.36212148E-04  1.37949483E-04  1.34623743E-04  1.31340619E-04  1.28100496E-04  1.24903741E-04  1.21750702E-04  1.18641709E-04  1.15577068E-04  1.12557069E-04  1.09581978E-04  1.06652043E-04  1.03767488E-04  1.00928518E-04  9.81353156E-05  9.53880407E-05  9.26868319E-05  9.00318055E-05  8.74230552E-05  8.48606523E-05  8.23446456E-05  7.98750608E-05  7.74519012E-05  7.50751471E-05  7.27447561E-05  7.04606630E-05  6.82227797E-05  6.60309956E-05  6.38851776E-05  6.17851699E-05  5.97307946E-05  5.77218516E-05  5.57581190E-05  5.38393532E-05  5.19652891E-05  5.01356406E-05  4.83501007E-05  4.66083420E-05  4.49100169E-05  4.32547584E-05  4.16421797E-05  4.00718758E-05  3.85434227E-05  3.70563791E-05  3.56102858E-05  3.42046672E-05  3.28390312E-05  3.15128700E-05  3.02256610E-05  2.89768668E-05  2.77659363E-05  2.65923052E-05  2.54553967E-05  2.43546222E-05  2.32893820E-05  2.22590658E-05  2.12630538E-05  2.03007172E-05  1.93714190E-05  1.84745144E-05  1.76093523E-05  1.67752754E-05  1.59716211E-05  1.51977226E-05  1.44529091E-05  1.37365070E-05  1.30478404E-05  1.23862322E-05  1.17510044E-05  1.11414789E-05  1.05569787E-05  9.99682784E-06  9.46035293E-06  8.94688323E-06  8.45575159E-06  7.98629505E-06  7.53785550E-06  7.10978030E-06  6.70142286E-06  6.31214328E-06  5.94130887E-06  5.58829469E-06  5.25248411E-06  4.93326924E-06  4.63005147E-06  4.34224186E-06  4.06926159E-06  3.81054231E-06  3.56552657E-06  3.33366810E-06  3.11443211E-06  2.90729565E-06
    INTERNAL  FACTOR  1.0
      4.77964550E-05  4.86357552E-05  4.94998891E-05  5.03897740E-05  5.13063677E-05  5.22506700E-05  5.32237253E-05  5.42266246E-05  5.52605081E-05  5.63265677E-05  5.74260493E-05  5.85602562E-05  5.97305519E-05  6.09383629E-05  6.21851827E-05  6.34725748E-05  6.48021769E-05  6.61757046E-05  6.75949559E-05  6.90618155E-05  7.05782595E-05  7.21463608E-05  7.37682944E-05  7.54463427E-05  7.71829024E-05  7.89804900E-05  8.08417495E-05  8.27694592E-05  8.47665396E-05  8.58477051E-05  8.37780551E-05  8.17349252E-05  7.97185556E-05  7.77291748E-05  7.57669992E-05  7.38322332E-05  7.19250687E-05  7.00456850E-05  6.81942485E-05  6.63709127E-05  6.45758179E-05  6.28090911E-05  6.10708458E-05  5.93611820E-05  5.76801856E-05  5.60279292E-05  5.44044709E-05  5.28098553E-05  5.12441125E-05  4.97072587E-05  4.81992959E-05  4.67202119E-05  4.52699801E-05  4.38485601E-05  4.24558971E-05  4.10919222E-05  3.97565525E-05  3.84496912E-05  3.71712275E-05  3.59210370E-05  3.46989814E-05  3.35049092E-05  3.23386555E-05  3.12000421E-05  3.00888781E-05  2.90049596E-05  2.79480705E-05  2.69179822E-05  2.59144542E-05  2.49372342E-05  2.39860586E-05  2.30606525E-05  2.21607304E-05  2.12859962E-05  2.04361437E-05  1.96108569E-05  1.88098104E-05  1.80326700E-05  1.72790927E-05  1.65487272E-05  1.58412147E-05  1.51561889E-05  1.44932764E-05  1.38520977E-05  1.32322668E-05  1.26333926E-05  1.20550786E-05  1.14969235E-05  1.09585223E-05  1.04394656E-05  9.93934146E-06  9.45773462E-06  8.99422777E-06  8.54840170E-06  8.11983583E-06  7.70810870E-06  7.31279839E-06  6.93348299E-06  6.56974109E-06  6.22115217E-06  5.88729706E-06  5.56775838E-06  5.26212096E-06  4.96997223E-06  4.69090264E-06  4.42450604E-06  4.17038005E-06  3.92812645E-06  3.69735152E-06  3.47766634E-06  3.26868717E-06  3.07003573E-06  2.88133948E-06  2.70223193E-06  2.53235286E-06  2.37134859E-06  2.21887220E-06  2.07458374E-06  1.93815042E-06  1.80924679E-06
    INTERNAL  FACTOR  1.0
      3.83338144E-05  3.90069517E-05  3.97000062E-05  4.04137136E-05  4.11488420E-05  4.19061934E-05  4.26866052E-05  4.34909527E-05  4.43201501E-05  4.51751535E-05  4.60569621E-05  4.69666211E-05  4.79052241E-05  4.88739153E-05  4.98738923E-05  5.09064093E-05  5.19727796E-05  5.30743792E-05  5.42126502E-05  5.53891040E-05  5.66053256E-05  5.78629776E-05  5.91638042E-05  6.05096361E-05  6.19023953E-05  6.33441004E-05  6.48368717E-05  6.63829375E-05  6.79846402E-05  6.88517588E-05  6.71918537E-05  6.55532183E-05  6.39360453E-05  6.23405179E-05  6.07668097E-05  5.92150845E-05  5.76854964E-05  5.61781891E-05  5.46932960E-05  5.32309404E-05  5.17912346E-05  5.03742807E-05  4.89801695E-05  4.76089813E-05  4.62607850E-05  4.49356388E-05  4.36335894E-05  4.23546723E-05  4.10989120E-05  3.98663213E-05  3.86569017E-05  3.74706436E-05  3.63075256E-05  3.51675153E-05  3.40505688E-05  3.29566307E-05  3.18856347E-05  3.08375030E-05  2.98121469E-05  2.88094664E-05  2.78293508E-05  2.68716785E-05  2.59363172E-05  2.50231240E-05  2.41319459E-05  2.32626193E-05  2.24149709E-05  2.15888173E-05  2.07839656E-05  2.00002135E-05  1.92373496E-05  1.84951535E-05  1.77733961E-05  1.70718399E-05  1.63902394E-05  1.57283411E-05  1.50858841E-05  1.44626003E-05  1.38582146E-05  1.32724454E-05  1.27050047E-05  1.21555988E-05  1.16239283E-05  1.11096888E-05  1.06125708E-05  1.01322604E-05  9.66843973E-06  9.22078705E-06  8.78897730E-06  8.37268242E-06  7.97157175E-06  7.58531241E-06  7.21356966E-06  6.85600729E-06  6.51228798E-06  6.18207372E-06  5.86502610E-06  5.56080676E-06  5.26907771E-06  4.98950168E-06  4.72174250E-06  4.46546541E-06  4.22033744E-06  3.98602769E-06  3.76220770E-06  3.54855173E-06  3.34473707E-06  3.15044432E-06  2.96535772E-06  2.78916534E-06  2.62155943E-06  2.46223658E-06  2.31089801E-06  2.16724979E-06  2.03100302E-06  1.90187403E-06  1.77958460E-06  1.66386206E-06  1.55443952E-06  1.45105595E-06
    INTERNAL  FACTOR  1.0
      3.31486193E-05  3.37307051E-05  3.43300141E-05  3.49471825E-05  3.55828743E-05  3.62377830E-05  3.69126330E-05  3.76081810E-05  3.83252177E-05  3.90645696E-05  3.98271010E-05  4.06137157E-05  4.14253593E-05  4.22630212E-05  4.31277370E-05  4.40205914E-05  4.49427199E-05  4.58953125E-05  4.68796160E-05  4.78969376E-05  4.89486480E-05  5.00361846E-05  5.11610558E-05  5.23248448E-05  5.35292135E-05  5.47759074E-05  5.60667600E-05  5.74036984E-05  5.87887480E-05  5.95385764E-05  5.81031972E-05  5.66862106E-05  5.52877833E-05  5.39080737E-05  5.25472320E-05  5.12053998E-05  4.98827103E-05  4.85792877E-05  4.72952477E-05  4.60306965E-05  4.47857315E-05  4.35604407E-05  4.23549030E-05  4.11691875E-05  4.00033540E-05  3.88574527E-05  3.77315241E-05  3.66255988E-05  3.55396980E-05  3.44738327E-05  3.34280044E-05  3.24022046E-05  3.13964150E-05  3.04106073E-05  2.94447437E-05  2.84987764E-05  2.75726479E-05  2.66662909E-05  2.57796288E-05  2.49125752E-05  2.40650342E-05  2.32369007E-05  2.24280603E-05  2.16383896E-05  2.08677560E-05  2.01160183E-05  1.93830264E-05  1.86686218E-05  1.79726378E-05  1.72948994E-05  1.66352237E-05  1.59934202E-05  1.53692908E-05  1.47626301E-05  1.41732257E-05  1.36008586E-05  1.30453031E-05  1.25063274E-05  1.19836934E-05  1.14771578E-05  1.09864716E-05  1.05113807E-05  1.00516262E-05  9.60694493E-06  9.17706920E-06  8.76172767E-06  8.36064536E-06  7.97354409E-06  7.60014276E-06  7.24015770E-06  6.89330298E-06  6.55929072E-06  6.23783148E-06  5.92863452E-06  5.63140815E-06  5.34586007E-06  5.07169767E-06  4.80862833E-06  4.55635980E-06  4.31460041E-06  4.08305948E-06  3.86144752E-06  3.64947660E-06  3.44686059E-06  3.25331545E-06  3.06855950E-06  2.89231367E-06  2.72430180E-06  2.56425079E-06  2.41189095E-06  2.26695613E-06  2.12918396E-06  1.99831610E-06  1.87409835E-06  1.75628089E-06  1.64461844E-06  1.53887040E-06  1.43880099E-06  1.34417940E-06  1.25477994E-06
    INTERNAL  FACTOR  1.0
      2.97386321E-05  3.02608390E-05  3.07984973E-05  3.13521777E-05  3.19224761E-05  3.25100146E-05  3.31154430E-05  3.37394402E-05  3.43827156E-05  3.50460107E-05  3.57301007E-05  3.64357966E-05  3.71639467E-05  3.79154386E-05  3.86912014E-05  3.94922081E-05  4.03194776E-05  4.11740773E-05  4.20571259E-05  4.29697960E-05  4.39133172E-05  4.48889793E-05  4.58981354E-05  4.69422058E-05  4.80226815E-05  4.91411284E-05  5.02991915E-05  5.14985995E-05  5.27411695E-05  5.34138633E-05  5.21261411E-05  5.08549194E-05  4.96003478E-05  4.83625685E-05  4.71417161E-05  4.59379177E-05  4.47512928E-05  4.35819529E-05  4.24300016E-05  4.12955344E-05  4.01786385E-05  3.90793930E-05  3.79978685E-05  3.69341272E-05  3.58882226E-05  3.48601998E-05  3.38500950E-05  3.28579359E-05  3.18837413E-05  3.09275213E-05  2.99892770E-05  2.90690008E-05  2.81666764E-05  2.72822785E-05  2.64157729E-05  2.55671170E-05  2.47362590E-05  2.39231387E-05  2.31276872E-05  2.23498270E-05  2.15894723E-05  2.08465286E-05  2.01208934E-05  1.94124558E-05  1.87210971E-05  1.80466903E-05  1.73891011E-05  1.67481870E-05  1.61237987E-05  1.55157790E-05  1.49239639E-05  1.43481825E-05  1.37882571E-05  1.32440033E-05  1.27152308E-05  1.22017429E-05  1.17033372E-05  1.12198057E-05  1.07509350E-05  1.02965065E-05  9.85629700E-06  9.43007853E-06  9.01761887E-06  8.61868177E-06  8.23302722E-06  7.86041172E-06  7.50058862E-06  7.15330832E-06  6.81831866E-06  6.49536514E-06  6.18419125E-06  5.88453872E-06  5.59614788E-06  5.31875790E-06  5.05210711E-06  4.79593327E-06  4.54997385E-06  4.31396637E-06  4.08764862E-06  3.87075894E-06  3.66303654E-06  3.46422173E-06  3.27405619E-06  3.09228322E-06  2.91864800E-06  2.75289783E-06  2.59478235E-06  2.44405380E-06  2.30046719E-06  2.16378055E-06  2.03375512E-06  1.91015553E-06  1.79275000E-06  1.68131049E-06  1.57561288E-06  1.47543710E-06  1.38056732E-06  1.29079202E-06  1.20590413E-06  1.12570115E-06
    INTERNAL  FACTOR  1.0
      2.72694201E-05  2.77482679E-05  2.82412842E-05  2.87489922E-05  2.92719385E-05  2.98106934E-05  3.03658529E-05  3.09380393E-05  3.15279032E-05  3.21361246E-05  3.27634144E-05  3.34105160E-05  3.40782074E-05  3.47673026E-05  3.54786535E-05  3.62131523E-05  3.69717332E-05  3.77553751E-05  3.85651038E-05  3.94019945E-05  4.02671747E-05  4.11618271E-05  4.20871926E-05  4.30445733E-05  4.40353366E-05  4.50609184E-05  4.61228270E-05  4.72226475E-05  4.83620464E-05  4.89788862E-05  4.77980841E-05  4.66324125E-05  4.54820086E-05  4.43470026E-05  4.32275182E-05  4.21236717E-05  4.10355728E-05  3.99633238E-05  3.89070195E-05  3.78667476E-05  3.68425881E-05  3.58346134E-05  3.48428884E-05  3.38674700E-05  3.29084073E-05  3.19657417E-05  3.10395064E-05  3.01297267E-05  2.92364199E-05  2.83595952E-05  2.74992538E-05  2.66553886E-05  2.58279846E-05  2.50170186E-05  2.42224594E-05  2.34442677E-05  2.26823962E-05  2.19367897E-05  2.12073849E-05  2.04941108E-05  1.97968887E-05  1.91156320E-05  1.84502466E-05  1.78006309E-05  1.71666760E-05  1.65482655E-05  1.59452762E-05  1.53575775E-05  1.47850324E-05  1.42274969E-05  1.36848205E-05  1.31568465E-05  1.26434119E-05  1.21443478E-05  1.16594795E-05  1.11886267E-05  1.07316039E-05  1.02882202E-05  9.85827999E-06  9.44158293E-06  9.03792422E-06  8.64709486E-06  8.26888191E-06  7.90306874E-06  7.54943526E-06  7.20775820E-06  6.87781136E-06  6.55936591E-06  6.25219059E-06  5.95605205E-06  5.67071506E-06  5.39594282E-06  5.13149720E-06  4.87713904E-06  4.63262838E-06  4.39772477E-06  4.17218747E-06  3.95577580E-06  3.74824931E-06  3.54936808E-06  3.35889296E-06  3.17658584E-06  3.00220983E-06  2.83552955E-06  2.67631134E-06  2.52432348E-06  2.37933640E-06  2.24112291E-06  2.10945836E-06  1.98412088E-06  1.86489152E-06  1.75155446E-06  1.64389716E-06  1.54171052E-06  1.44478903E-06  1.35293090E-06  1.26593820E-06  1.18361697E-06  1.10577736E-06  1.03223368E-06
    INTERNAL  FACTOR  1.0
      2.53709446E-05  2.58164555E-05  2.62751483E-05  2.67475102E-05  2.72340493E-05  2.77352966E-05  2.82518063E-05  2.87841575E-05  2.93329556E-05  2.98988331E-05  3.04824514E-05  3.10845023E-05  3.17057096E-05  3.23468305E-05  3.30086578E-05  3.36920213E-05  3.43977904E-05  3.51268758E-05  3.58802318E-05  3.66588588E-05  3.74638059E-05  3.82961733E-05  3.91571155E-05  4.00478442E-05  4.09696314E-05  4.19238129E-05  4.29117923E-05  4.39350442E-05  4.49951190E-05  4.55690149E-05  4.44704193E-05  4.33859009E-05  4.23155872E-05  4.12595994E-05  4.02180526E-05  3.91910551E-05  3.81787087E-05  3.71811088E-05  3.61983436E-05  3.52304946E-05  3.42776363E-05  3.33398360E-05  3.24171541E-05  3.15096435E-05  3.06173501E-05  2.97403121E-05  2.88785605E-05  2.80321190E-05  2.72010035E-05  2.63852227E-05  2.55847775E-05  2.47996616E-05  2.40298608E-05  2.32753536E-05  2.25361110E-05  2.18120964E-05  2.11032658E-05  2.04095678E-05  1.97309435E-05  1.90673271E-05  1.84186450E-05  1.77848168E-05  1.71657550E-05  1.65613651E-05  1.59715456E-05  1.53961884E-05  1.48351787E-05  1.42883951E-05  1.37557102E-05  1.32369898E-05  1.27320941E-05  1.22408772E-05  1.17631875E-05  1.12988679E-05  1.08477557E-05  1.04096834E-05  9.98447811E-06  9.57196245E-06  9.17195435E-06  8.78426740E-06  8.40871109E-06  8.04509096E-06  7.69320890E-06  7.35286335E-06  7.02384955E-06  6.70595978E-06  6.39898358E-06  6.10270805E-06  5.81691803E-06  5.54139642E-06  5.27592437E-06  5.02028155E-06  4.77424643E-06  4.53759648E-06  4.31010846E-06  4.09155865E-06  3.88172309E-06  3.68037782E-06  3.48729916E-06  3.30226388E-06  3.12504950E-06  2.95543445E-06  2.79319836E-06  2.63812223E-06  2.48998866E-06  2.34858208E-06  2.21368889E-06  2.08509771E-06  1.96259954E-06  1.84598795E-06  1.73505925E-06  1.62961262E-06  1.52945034E-06  1.43437786E-06  1.34420396E-06  1.25874092E-06  1.17780458E-06  1.10121450E-06  1.02879402E-06  9.60370388E-07
    INTERNAL  FACTOR  1.0
      2.38501254E-05  2.42689308E-05  2.47001280E-05  2.51441749E-05  2.56015493E-05  2.60727501E-05  2.65582985E-05  2.70587388E-05  2.75746401E-05  2.81065970E-05  2.86552313E-05  2.92211933E-05  2.98051633E-05  3.04078533E-05  3.10300084E-05  3.16724088E-05  3.23358718E-05  3.30212533E-05  3.37294507E-05  3.44614042E-05  3.52181000E-05  3.60005726E-05  3.68099071E-05  3.76472425E-05  3.85137746E-05  3.94107593E-05  4.03395159E-05  4.13014307E-05  4.22979611E-05  4.28374557E-05  4.18047136E-05  4.07852049E-05  3.97790493E-05  3.87863610E-05  3.78072480E-05  3.68418121E-05  3.58901492E-05  3.49523488E-05  3.40284938E-05  3.31186609E-05  3.22229201E-05  3.13413347E-05  3.04739615E-05  2.96208501E-05  2.87820437E-05  2.79575783E-05  2.71474830E-05  2.63517800E-05  2.55704844E-05  2.48036042E-05  2.40511404E-05  2.33130869E-05  2.25894305E-05  2.18801510E-05  2.11852211E-05  2.05046064E-05  1.98382654E-05  1.91861500E-05  1.85482048E-05  1.79243677E-05  1.73145698E-05  1.67187354E-05  1.61367822E-05  1.55686214E-05  1.50141577E-05  1.44732893E-05  1.39459084E-05  1.34319009E-05  1.29311469E-05  1.24435204E-05  1.19688898E-05  1.15071181E-05  1.10580627E-05  1.06215760E-05  1.01975050E-05  9.78569214E-06  9.38597510E-06  8.99818700E-06  8.62215673E-06  8.25770904E-06  7.90466482E-06  7.56284130E-06  7.23205223E-06  6.91210813E-06  6.60281652E-06  6.30398212E-06  6.01540710E-06  5.73689132E-06  5.46823251E-06  5.20922659E-06  4.95966781E-06  4.71934908E-06  4.48806213E-06  4.26559777E-06  4.05174614E-06  3.84629694E-06  3.64903962E-06  3.45976367E-06  3.27825878E-06  3.10431514E-06  2.93772358E-06  2.77827582E-06  2.62576470E-06  2.47998436E-06  2.34073041E-06  2.20780021E-06  2.08099297E-06  1.96010998E-06  1.84495476E-06  1.73533326E-06  1.63105399E-06  1.53192819E-06  1.43776997E-06  1.34839645E-06  1.26362788E-06  1.18328778E-06  1.10720304E-06  1.03520402E-06  9.67124664E-07  9.02802575E-07
    INTERNAL  FACTOR  1.0
      2.25948586E-05  2.29916216E-05  2.34001244E-05  2.38208005E-05  2.42541025E-05  2.47005034E-05  2.51604966E-05  2.56345981E-05  2.61233467E-05  2.66273059E-05  2.71470648E-05  2.76832394E-05  2.82364742E-05  2.88074438E-05  2.93968539E-05  3.00054439E-05  3.06339878E-05  3.12832968E-05  3.19542206E-05  3.26476504E-05  3.33645202E-05  3.41058101E-05  3.48725481E-05  3.56658133E-05  3.64867386E-05  3.73365138E-05  3.82163885E-05  3.91276763E-05  4.00717579E-05  4.05828582E-05  3.96044708E-05  3.86386202E-05  3.76854201E-05  3.67449784E-05  3.58173975E-05  3.49027740E-05  3.40011985E-05  3.31127558E-05  3.22375247E-05  3.13755776E-05  3.05269809E-05  2.96917947E-05  2.88700725E-05  2.80618617E-05  2.72672029E-05  2.64861303E-05  2.57186715E-05  2.49648475E-05  2.42246726E-05  2.34981544E-05  2.27852939E-05  2.20860852E-05  2.14005159E-05  2.07285669E-05  2.00702121E-05  1.94254191E-05  1.87941487E-05  1.81763550E-05  1.75719858E-05  1.69809822E-05  1.64032788E-05  1.58388040E-05  1.52874799E-05  1.47492223E-05  1.42239407E-05  1.37115391E-05  1.32119150E-05  1.27249605E-05  1.22505618E-05  1.17885998E-05  1.13389497E-05  1.09014817E-05  1.04760608E-05  1.00625470E-05  9.66079546E-06  9.27065693E-06  8.89197758E-06  8.52459933E-06  8.16836008E-06  7.82309380E-06  7.48863082E-06  7.16479796E-06  6.85141880E-06  6.54831383E-06  6.25530068E-06  5.97219437E-06  5.69880748E-06  5.43495038E-06  5.18043148E-06  4.93505741E-06  4.69863328E-06  4.47096288E-06  4.25184889E-06  4.04109316E-06  3.83849685E-06  3.64386074E-06  3.45698536E-06  3.27767127E-06  3.10571926E-06  2.94093052E-06  2.78310691E-06  2.63205112E-06  2.48756689E-06  2.34945917E-06  2.21753437E-06  2.09160048E-06  1.97146728E-06  1.85694654E-06  1.74785211E-06  1.64400015E-06  1.54520925E-06  1.45130058E-06  1.36209805E-06  1.27742838E-06  1.19712131E-06  1.12100962E-06  1.04892933E-06  9.80719725E-07  9.16223487E-07  8.55286762E-07
    INTERNAL  FACTOR  1.0
      2.15349153E-05  2.19130659E-05  2.23024054E-05  2.27033472E-05  2.31163228E-05  2.35417825E-05  2.39801971E-05  2.44320581E-05  2.48978791E-05  2.53781972E-05  2.58735738E-05  2.63845960E-05  2.69118781E-05  2.74560630E-05  2.80178235E-05  2.85978640E-05  2.91969224E-05  2.98157717E-05  3.04552220E-05  3.11161224E-05  3.17993633E-05  3.25058786E-05  3.32366483E-05  3.39927009E-05  3.47751159E-05  3.55850274E-05  3.64236265E-05  3.72921650E-05  3.81919589E-05  3.86790831E-05  3.77465926E-05  3.68260509E-05  3.59175662E-05  3.50212414E-05  3.41371741E-05  3.32654563E-05  3.24061745E-05  3.15594094E-05  3.07252360E-05  2.99037236E-05  2.90949353E-05  2.82989283E-05  2.75157538E-05  2.67454568E-05  2.59880761E-05  2.52436442E-05  2.45121876E-05  2.37937261E-05  2.30882734E-05  2.23958368E-05  2.17164171E-05  2.10500089E-05  2.03966002E-05  1.97561728E-05  1.91287020E-05  1.85141568E-05  1.79124998E-05  1.73236873E-05  1.67476696E-05  1.61843904E-05  1.56337876E-05  1.50957928E-05  1.45703317E-05  1.40573242E-05  1.35566841E-05  1.30683196E-05  1.25921332E-05  1.21280222E-05  1.16758779E-05  1.12355869E-05  1.08070303E-05  1.03900843E-05  9.98462023E-06  9.59050466E-06  9.20759964E-06  8.83576283E-06  8.47484763E-06  8.12470341E-06  7.78517562E-06  7.45610607E-06  7.13733302E-06  6.82869143E-06  6.53001314E-06  6.24112707E-06  5.96185941E-06  5.69203385E-06  5.43147176E-06  5.17999241E-06  4.93741320E-06  4.70354983E-06  4.47821655E-06  4.26122635E-06  4.05239118E-06  3.85152217E-06  3.65842982E-06  3.47292425E-06  3.29481535E-06  3.12391303E-06  2.96002743E-06  2.80296906E-06  2.65254909E-06  2.50857945E-06  2.37087309E-06  2.23924412E-06  2.11350802E-06  1.99348179E-06  1.87898414E-06  1.76983566E-06  1.66585893E-06  1.56687875E-06  1.47272222E-06  1.38321889E-06  1.29820091E-06  1.21750317E-06  1.14096337E-06  1.06842214E-06  9.99723197E-07  9.34713360E-07  8.73242693E-07  8.15164560E-07
    INTERNAL  FACTOR  1.0
      2.06237164E-05  2.09858664E-05  2.13587320E-05  2.17427089E-05  2.21382104E-05  2.25456678E-05  2.29655320E-05  2.33982735E-05  2.38443844E-05  2.43043790E-05  2.47787949E-05  2.52681944E-05  2.57731658E-05  2.62943248E-05  2.68323157E-05  2.73878132E-05  2.79615239E-05  2.85541880E-05  2.91665815E-05  2.97995175E-05  3.04538486E-05  3.11304695E-05  3.18303184E-05  3.25543803E-05  3.33036893E-05  3.40793313E-05  3.48824471E-05  3.57142355E-05  3.65759568E-05  3.70424694E-05  3.61494351E-05  3.52678439E-05  3.43977996E-05  3.35394007E-05  3.26927405E-05  3.18579074E-05  3.10349840E-05  3.02240478E-05  2.94251705E-05  2.86384184E-05  2.78638521E-05  2.71015263E-05  2.63514899E-05  2.56137862E-05  2.48884523E-05  2.41755193E-05  2.34750125E-05  2.27869510E-05  2.21113479E-05  2.14482100E-05  2.07975384E-05  2.01593277E-05  1.95335665E-05  1.89202372E-05  1.83193164E-05  1.77307742E-05  1.71545748E-05  1.65906766E-05  1.60390316E-05  1.54995863E-05  1.49722809E-05  1.44570501E-05  1.39538227E-05  1.34625218E-05  1.29830651E-05  1.25153646E-05  1.20593270E-05  1.16148537E-05  1.11818409E-05  1.07601797E-05  1.03497565E-05  9.95045254E-06  9.56214470E-06  9.18470520E-06  8.81800190E-06  8.46189848E-06  8.11625456E-06  7.78092585E-06  7.45576438E-06  7.14061862E-06  6.83533370E-06  6.53975154E-06  6.25371112E-06  5.97704858E-06  5.70959747E-06  5.45118893E-06  5.20165191E-06  4.96081332E-06  4.72849827E-06  4.50453028E-06  4.28873144E-06  4.08092266E-06  3.88092386E-06  3.68855414E-06  3.50363204E-06  3.32597570E-06  3.15540305E-06  2.99173206E-06  2.83478088E-06  2.68436807E-06  2.54031277E-06  2.40243486E-06  2.27055522E-06  2.14449582E-06  2.02407994E-06  1.90913233E-06  1.79947938E-06  1.69494926E-06  1.59537206E-06  1.50058000E-06  1.41040747E-06  1.32469126E-06  1.24327062E-06  1.16598741E-06  1.09268621E-06  1.02321439E-06  9.57422281E-07  8.95163181E-07  8.36293500E-07  7.80672805E-07
    INTERNAL  FACTOR  1.0
      1.98289636E-05  2.01771579E-05  2.05356547E-05  2.09048347E-05  2.12850952E-05  2.16768510E-05  2.20805352E-05  2.24966007E-05  2.29255204E-05  2.33677886E-05  2.38239225E-05  2.42944626E-05  2.47799745E-05  2.52810502E-05  2.57983091E-05  2.63324000E-05  2.68840023E-05  2.74538276E-05  2.80426219E-05  2.86511672E-05  2.92802831E-05  2.99308298E-05  3.06037094E-05  3.12998690E-05  3.20203027E-05  3.27660547E-05  3.35382217E-05  3.43379564E-05  3.51664705E-05  3.56150057E-05  3.47563852E-05  3.39087669E-05  3.30722505E-05  3.22469307E-05  3.14328974E-05  3.06302353E-05  2.98390240E-05  2.90593379E-05  2.82912460E-05  2.75348121E-05  2.67900944E-05  2.60571454E-05  2.53360124E-05  2.46267367E-05  2.39293541E-05  2.32438947E-05  2.25703825E-05  2.19088360E-05  2.12592679E-05  2.06216846E-05  1.99960872E-05  1.93824705E-05  1.87808235E-05  1.81911295E-05  1.76133656E-05  1.70475034E-05  1.64935084E-05  1.59513405E-05  1.54209536E-05  1.49022963E-05  1.43953111E-05  1.38999351E-05  1.34161000E-05  1.29437319E-05  1.24827514E-05  1.20330742E-05  1.15946103E-05  1.11672652E-05  1.07509389E-05  1.03455268E-05  9.95091961E-06  9.56700321E-06  9.19365915E-06  8.83076460E-06  8.47819254E-06  8.13581187E-06  7.80348764E-06  7.48108111E-06  7.16845002E-06  6.86544868E-06  6.57192818E-06  6.28773654E-06  6.01271893E-06  5.74671782E-06  5.48957317E-06  5.24112263E-06  5.00120174E-06  4.76964407E-06  4.54628148E-06  4.33094429E-06  4.12346145E-06  3.92366076E-06  3.73136909E-06  3.54641251E-06  3.36861654E-06  3.19780633E-06  3.03380685E-06  2.87644307E-06  2.72554014E-06  2.58092362E-06  2.44241961E-06  2.30985495E-06  2.18305740E-06  2.06185581E-06  1.94608026E-06  1.83556226E-06  1.73013488E-06  1.62963292E-06  1.53389302E-06  1.44275384E-06  1.35605619E-06  1.27364313E-06  1.19536011E-06  1.12105508E-06  1.05057860E-06  9.83783939E-07  9.20527181E-07  8.60667290E-07  8.04066203E-07  7.50588900E-07
    INTERNAL  FACTOR  1.0
      1.91274471E-05  1.94633228E-05  1.98091366E-05  2.01652557E-05  2.05320631E-05  2.09099592E-05  2.12993618E-05  2.17007075E-05  2.21144527E-05  2.25410743E-05  2.29810708E-05  2.34349640E-05  2.39032993E-05  2.43866477E-05  2.48856069E-05  2.54008025E-05  2.59328900E-05  2.64825558E-05  2.70505196E-05  2.76375354E-05  2.82443943E-05  2.88719257E-05  2.95209999E-05  3.01925305E-05  3.08874765E-05  3.16068449E-05  3.23516939E-05  3.31231353E-05  3.39223379E-05  3.43550047E-05  3.35267608E-05  3.27091299E-05  3.19022080E-05  3.11060867E-05  3.03208526E-05  2.95465873E-05  2.87833678E-05  2.80312657E-05  2.72903477E-05  2.65606752E-05  2.58423044E-05  2.51352860E-05  2.44396655E-05  2.37554828E-05  2.30827725E-05  2.24215635E-05  2.17718791E-05  2.11337370E-05  2.05071495E-05  1.98921230E-05  1.92886581E-05  1.86967502E-05  1.81163885E-05  1.75475569E-05  1.69902334E-05  1.64443904E-05  1.59099949E-05  1.53870080E-05  1.48753854E-05  1.43750773E-05  1.38860284E-05  1.34081780E-05  1.29414602E-05  1.24858037E-05  1.20411320E-05  1.16073636E-05  1.11844119E-05  1.07721855E-05  1.03705882E-05  9.97951891E-06  9.59887225E-06  9.22853818E-06  8.86840243E-06  8.51834651E-06  8.17824787E-06  7.84798007E-06  7.52741293E-06  7.21641262E-06  6.91484191E-06  6.62256027E-06  6.33942404E-06  6.06528664E-06  5.79999871E-06  5.54340828E-06  5.29536099E-06  5.05570023E-06  4.82426735E-06  4.60090181E-06  4.38544143E-06  4.17772252E-06  3.97758008E-06  3.78484802E-06  3.59935931E-06  3.42094620E-06  3.24944036E-06  3.08467314E-06  2.92647570E-06  2.77467919E-06  2.62911496E-06  2.48961474E-06  2.35601077E-06  2.22813604E-06  2.10582438E-06  1.98891070E-06  1.87723110E-06  1.77062305E-06  1.66892552E-06  1.57197915E-06  1.47962637E-06  1.39171156E-06  1.30808113E-06  1.22858371E-06  1.15307021E-06  1.08139397E-06  1.01341083E-06  9.48979262E-07  8.87960426E-07  8.30218281E-07  7.75619648E-07  7.24034285E-07
    INTERNAL  FACTOR  1.0
      1.85019926E-05  1.88268854E-05  1.91613914E-05  1.95058655E-05  1.98606787E-05  2.02262178E-05  2.06028872E-05  2.09911092E-05  2.13913252E-05  2.18039965E-05  2.22296055E-05  2.26686566E-05  2.31216777E-05  2.35892209E-05  2.40718645E-05  2.45702136E-05  2.50849021E-05  2.56165943E-05  2.61659860E-05  2.67338069E-05  2.73208218E-05  2.79278334E-05  2.85556833E-05  2.92052553E-05  2.98774770E-05  3.05733226E-05  3.12938156E-05  3.20400314E-05  3.28131006E-05  3.32316194E-05  3.24304585E-05  3.16395636E-05  3.08590276E-05  3.00889389E-05  2.93293813E-05  2.85804340E-05  2.78421713E-05  2.71146624E-05  2.63979719E-05  2.56921592E-05  2.49972786E-05  2.43133792E-05  2.36405050E-05  2.29786947E-05  2.23279816E-05  2.16883936E-05  2.10599534E-05  2.04426782E-05  1.98365797E-05  1.92416641E-05  1.86579322E-05  1.80853792E-05  1.75239949E-05  1.69737637E-05  1.64346643E-05  1.59066700E-05  1.53897489E-05  1.48838633E-05  1.43889704E-05  1.39050220E-05  1.34319647E-05  1.29697397E-05  1.25182833E-05  1.20775264E-05  1.16473952E-05  1.12278107E-05  1.08186892E-05  1.04199424E-05  1.00314770E-05  9.65319544E-06  9.28499566E-06  8.92677127E-06  8.57841171E-06  8.23980238E-06  7.91082473E-06  7.59135647E-06  7.28127165E-06  6.98044084E-06  6.68873129E-06  6.40600706E-06  6.13212919E-06  5.86695590E-06  5.61034270E-06  5.36214261E-06  5.12220629E-06  4.89038228E-06  4.66651709E-06  4.45045546E-06  4.24204049E-06  4.04111384E-06  3.84751592E-06  3.66108607E-06  3.48166272E-06  3.30908358E-06  3.14318587E-06  2.98380643E-06  2.83078193E-06  2.68394907E-06  2.54314469E-06  2.40820603E-06  2.27897082E-06  2.15527750E-06  2.03696536E-06  1.92387467E-06  1.81584692E-06  1.71272488E-06  1.61435279E-06  1.52057650E-06  1.43124360E-06  1.34620354E-06  1.26530777E-06  1.18840986E-06  1.11536560E-06  1.04603312E-06  9.80272988E-07  9.17948286E-07  8.58924725E-07  8.03070708E-07  7.50257414E-07  7.00358857E-07
    INTERNAL  FACTOR  1.0
      1.79395768E-05  1.82545936E-05  1.85789314E-05  1.89129344E-05  1.92569621E-05  1.96113897E-05  1.99766092E-05  2.03530302E-05  2.07410806E-05  2.11412077E-05  2.15538792E-05  2.19795843E-05  2.24188346E-05  2.28721657E-05  2.33401380E-05  2.38233385E-05  2.43223818E-05  2.48379118E-05  2.53706033E-05  2.59211638E-05  2.64903349E-05  2.70788948E-05  2.76876596E-05  2.83174862E-05  2.89692740E-05  2.96439676E-05  3.03425593E-05  3.10660919E-05  3.18156617E-05  3.22214586E-05  3.14446510E-05  3.06777974E-05  2.99209878E-05  2.91743079E-05  2.84378391E-05  2.77116580E-05  2.69958366E-05  2.62904423E-05  2.55955374E-05  2.49111797E-05  2.42374218E-05  2.35743113E-05  2.29218909E-05  2.22801980E-05  2.16492649E-05  2.10291189E-05  2.04197818E-05  1.98212703E-05  1.92335957E-05  1.86567640E-05  1.80907762E-05  1.75356274E-05  1.69913079E-05  1.64578023E-05  1.59350903E-05  1.54231458E-05  1.49219377E-05  1.44314298E-05  1.39515805E-05  1.34823430E-05  1.30236655E-05  1.25754910E-05  1.21377577E-05  1.17103988E-05  1.12933425E-05  1.08865124E-05  1.04898272E-05  1.01032013E-05  9.72654435E-06  9.35976165E-06  9.00275425E-06  8.65541901E-06  8.31764874E-06  7.98933231E-06  7.67035479E-06  7.36059760E-06  7.05993860E-06  6.76825233E-06  6.48541004E-06  6.21127994E-06  5.94572730E-06  5.68861463E-06  5.43980185E-06  5.19914644E-06  4.96650361E-06  4.74172649E-06  4.52466626E-06  4.31517238E-06  4.11309272E-06  3.91827375E-06  3.73056075E-06  3.54979791E-06  3.37582859E-06  3.20849545E-06  3.04764063E-06  2.89310593E-06  2.74473301E-06  2.60236351E-06  2.46583924E-06  2.33500239E-06  2.20969562E-06  2.08976228E-06  1.97504654E-06  1.86539354E-06  1.76064957E-06  1.66066219E-06  1.56528037E-06  1.47435466E-06  1.38773726E-06  1.30528220E-06  1.22684547E-06  1.15228507E-06  1.08146118E-06  1.01423625E-06  9.50475060E-07  8.90044879E-07  8.32815491E-07  7.78659301E-07  7.27451403E-07  6.79069642E-07
    INTERNAL  FACTOR  1.0