# File generated by Flopy version 3.9.5 on 05/11/2026 at 06:10:06.
BEGIN options
END options

BEGIN sources
  SEA_CHD  AUX  MP_CONC
  INLAND_GHB  AUX  MP_CONC
  RCHA  AUX  MP_CONC
  PUMP  AUX  MP_CONC
END sources

