# File generated by Flopy version 3.9.5 on 05/11/2026 at 06:09:55.
BEGIN options
  COMPLEXITY  moderate
END options

BEGIN nonlinear
  OUTER_DVCLOSE  1.00000000E-05
  OUTER_MAXIMUM  500
END nonlinear

BEGIN linear
  INNER_MAXIMUM  150
  INNER_DVCLOSE  1.00000000E-06
  inner_rclose  1.00000000E-04
  LINEAR_ACCELERATION  bicgstab
  RELAXATION_FACTOR       0.97000000
END linear

