# File generated by Flopy version 3.9.5 on 05/11/2026 at 06:09:55.
BEGIN options
END options

BEGIN timing
  TDIS6  mp_swi.tdis
END timing

BEGIN models
  gwf6  gwf.nam  gwf
  gwt6  gwt_salt.nam  gwt_salt
  gwt6  gwt_mp.nam  gwt_mp
END models

BEGIN exchanges
  GWF6-GWT6  gwf_gwt_salt.exg  gwf  gwt_salt
  GWF6-GWT6  gwf_gwt_mp.exg  gwf  gwt_mp
END exchanges

BEGIN solutiongroup  1
  ims6  ims_flow.ims  gwf
  ims6  ims_salt.ims  gwt_salt
  ims6  ims_mp.ims  gwt_mp
END solutiongroup  1

