# File generated by Flopy version 3.9.5 on 05/11/2026 at 05:39:23.
BEGIN options
  SAVE_FLOWS
END options

BEGIN packages
  DIS6  gwf_swi.dis  dis
  NPF6  gwf_swi.npf  npf
  IC6  gwf_swi.ic  ic
  STO6  gwf_swi.sto  sto
  CHD6  gwf_swi.chd  chd
  GHB6  gwf_swi.ghb  ghb
  RCH6  gwf_swi.rcha  rch
  WEL6  gwf_swi.wel  wel
  BUY6  gwf_swi.buy  buy
  OC6  gwf_swi.oc  oc
END packages

