# File generated by Flopy version 3.9.5 on 05/11/2026 at 05:39:23.
BEGIN options
END options

BEGIN griddata
  strt
    CONSTANT       1.75248750
END griddata

