# File generated by Flopy version 3.9.5 on 05/11/2026 at 05:39:30.
BEGIN options
  auxiliary  CONCENTRATION
END options

BEGIN dimensions
  MAXBOUND  65
END dimensions

BEGIN period  1
END period  1

BEGIN period  2
  4 1 23 -1.67975660E-02 0.00000000E+00
  5 1 23 -1.67975660E-02 0.00000000E+00
  6 1 23 -1.67975660E-02 0.00000000E+00
  7 1 23 -1.67975660E-02 0.00000000E+00
  8 1 23 -1.67975660E-02 0.00000000E+00
  6 1 36 -2.39965229E-02 0.00000000E+00
  7 1 36 -2.39965229E-02 0.00000000E+00
  8 1 36 -2.39965229E-02 0.00000000E+00
  9 1 36 -2.39965229E-02 0.00000000E+00
  10 1 36 -2.39965229E-02 0.00000000E+00
  11 1 36 -2.39965229E-02 0.00000000E+00
  12 1 36 -2.39965229E-02 0.00000000E+00
  13 1 61 -2.14086626E-02 0.00000000E+00
  14 1 61 -2.14086626E-02 0.00000000E+00
  15 1 61 -2.14086626E-02 0.00000000E+00
  16 1 61 -2.14086626E-02 0.00000000E+00
  17 1 61 -2.14086626E-02 0.00000000E+00
  18 1 61 -2.14086626E-02 0.00000000E+00
  19 1 61 -2.14086626E-02 0.00000000E+00
  20 1 61 -2.14086626E-02 0.00000000E+00
  21 1 61 -2.14086626E-02 0.00000000E+00
  22 1 61 -2.14086626E-02 0.00000000E+00
  23 1 61 -2.14086626E-02 0.00000000E+00
  24 1 61 -2.14086626E-02 0.00000000E+00
  25 1 61 -2.14086626E-02 0.00000000E+00
  26 1 61 -2.14086626E-02 0.00000000E+00
  27 1 61 -2.14086626E-02 0.00000000E+00
  28 1 61 -2.14086626E-02 0.00000000E+00
  29 1 61 -2.14086626E-02 0.00000000E+00
  15 1 80 -2.35755312E-02 0.00000000E+00
  16 1 80 -2.35755312E-02 0.00000000E+00
  17 1 80 -2.35755312E-02 0.00000000E+00
  18 1 80 -2.35755312E-02 0.00000000E+00
  19 1 80 -2.35755312E-02 0.00000000E+00
  20 1 80 -2.35755312E-02 0.00000000E+00
  21 1 80 -2.35755312E-02 0.00000000E+00
  22 1 80 -2.35755312E-02 0.00000000E+00
  23 1 80 -2.35755312E-02 0.00000000E+00
  24 1 80 -2.35755312E-02 0.00000000E+00
  25 1 80 -2.35755312E-02 0.00000000E+00
  26 1 80 -2.35755312E-02 0.00000000E+00
  27 1 80 -2.35755312E-02 0.00000000E+00
  28 1 80 -2.35755312E-02 0.00000000E+00
  29 1 80 -2.35755312E-02 0.00000000E+00
  30 1 80 -2.35755312E-02 0.00000000E+00
  31 1 80 -2.35755312E-02 0.00000000E+00
  32 1 80 -2.35755312E-02 0.00000000E+00
  33 1 80 -2.35755312E-02 0.00000000E+00
  13 1 96 -1.97618424E-02 0.00000000E+00
  14 1 96 -1.97618424E-02 0.00000000E+00
  15 1 96 -1.97618424E-02 0.00000000E+00
  16 1 96 -1.97618424E-02 0.00000000E+00
  17 1 96 -1.97618424E-02 0.00000000E+00
  18 1 96 -1.97618424E-02 0.00000000E+00
  19 1 96 -1.97618424E-02 0.00000000E+00
  20 1 96 -1.97618424E-02 0.00000000E+00
  21 1 96 -1.97618424E-02 0.00000000E+00
  22 1 96 -1.97618424E-02 0.00000000E+00
  23 1 96 -1.97618424E-02 0.00000000E+00
  24 1 96 -1.97618424E-02 0.00000000E+00
  25 1 96 -1.97618424E-02 0.00000000E+00
  26 1 96 -1.97618424E-02 0.00000000E+00
  27 1 96 -1.97618424E-02 0.00000000E+00
  28 1 96 -1.97618424E-02 0.00000000E+00
  29 1 96 -1.97618424E-02 0.00000000E+00
END period  2

BEGIN period  3
  4 1 23 -1.67975660E-02 0.00000000E+00
  5 1 23 -1.67975660E-02 0.00000000E+00
  6 1 23 -1.67975660E-02 0.00000000E+00
  7 1 23 -1.67975660E-02 0.00000000E+00
  8 1 23 -1.67975660E-02 0.00000000E+00
  6 1 36 -2.39965229E-02 0.00000000E+00
  7 1 36 -2.39965229E-02 0.00000000E+00
  8 1 36 -2.39965229E-02 0.00000000E+00
  9 1 36 -2.39965229E-02 0.00000000E+00
  10 1 36 -2.39965229E-02 0.00000000E+00
  11 1 36 -2.39965229E-02 0.00000000E+00
  12 1 36 -2.39965229E-02 0.00000000E+00
  13 1 61 -2.14086626E-02 0.00000000E+00
  14 1 61 -2.14086626E-02 0.00000000E+00
  15 1 61 -2.14086626E-02 0.00000000E+00
  16 1 61 -2.14086626E-02 0.00000000E+00
  17 1 61 -2.14086626E-02 0.00000000E+00
  18 1 61 -2.14086626E-02 0.00000000E+00
  19 1 61 -2.14086626E-02 0.00000000E+00
  20 1 61 -2.14086626E-02 0.00000000E+00
  21 1 61 -2.14086626E-02 0.00000000E+00
  22 1 61 -2.14086626E-02 0.00000000E+00
  23 1 61 -2.14086626E-02 0.00000000E+00
  24 1 61 -2.14086626E-02 0.00000000E+00
  25 1 61 -2.14086626E-02 0.00000000E+00
  26 1 61 -2.14086626E-02 0.00000000E+00
  27 1 61 -2.14086626E-02 0.00000000E+00
  28 1 61 -2.14086626E-02 0.00000000E+00
  29 1 61 -2.14086626E-02 0.00000000E+00
  15 1 80 -2.35755312E-02 0.00000000E+00
  16 1 80 -2.35755312E-02 0.00000000E+00
  17 1 80 -2.35755312E-02 0.00000000E+00
  18 1 80 -2.35755312E-02 0.00000000E+00
  19 1 80 -2.35755312E-02 0.00000000E+00
  20 1 80 -2.35755312E-02 0.00000000E+00
  21 1 80 -2.35755312E-02 0.00000000E+00
  22 1 80 -2.35755312E-02 0.00000000E+00
  23 1 80 -2.35755312E-02 0.00000000E+00
  24 1 80 -2.35755312E-02 0.00000000E+00
  25 1 80 -2.35755312E-02 0.00000000E+00
  26 1 80 -2.35755312E-02 0.00000000E+00
  27 1 80 -2.35755312E-02 0.00000000E+00
  28 1 80 -2.35755312E-02 0.00000000E+00
  29 1 80 -2.35755312E-02 0.00000000E+00
  30 1 80 -2.35755312E-02 0.00000000E+00
  31 1 80 -2.35755312E-02 0.00000000E+00
  32 1 80 -2.35755312E-02 0.00000000E+00
  33 1 80 -2.35755312E-02 0.00000000E+00
  13 1 96 -1.97618424E-02 0.00000000E+00
  14 1 96 -1.97618424E-02 0.00000000E+00
  15 1 96 -1.97618424E-02 0.00000000E+00
  16 1 96 -1.97618424E-02 0.00000000E+00
  17 1 96 -1.97618424E-02 0.00000000E+00
  18 1 96 -1.97618424E-02 0.00000000E+00
  19 1 96 -1.97618424E-02 0.00000000E+00
  20 1 96 -1.97618424E-02 0.00000000E+00
  21 1 96 -1.97618424E-02 0.00000000E+00
  22 1 96 -1.97618424E-02 0.00000000E+00
  23 1 96 -1.97618424E-02 0.00000000E+00
  24 1 96 -1.97618424E-02 0.00000000E+00
  25 1 96 -1.97618424E-02 0.00000000E+00
  26 1 96 -1.97618424E-02 0.00000000E+00
  27 1 96 -1.97618424E-02 0.00000000E+00
  28 1 96 -1.97618424E-02 0.00000000E+00
  29 1 96 -1.97618424E-02 0.00000000E+00
END period  3

BEGIN period  4
  4 1 23 -1.67975660E-02 0.00000000E+00
  5 1 23 -1.67975660E-02 0.00000000E+00
  6 1 23 -1.67975660E-02 0.00000000E+00
  7 1 23 -1.67975660E-02 0.00000000E+00
  8 1 23 -1.67975660E-02 0.00000000E+00
  6 1 36 -2.39965229E-02 0.00000000E+00
  7 1 36 -2.39965229E-02 0.00000000E+00
  8 1 36 -2.39965229E-02 0.00000000E+00
  9 1 36 -2.39965229E-02 0.00000000E+00
  10 1 36 -2.39965229E-02 0.00000000E+00
  11 1 36 -2.39965229E-02 0.00000000E+00
  12 1 36 -2.39965229E-02 0.00000000E+00
  13 1 61 -2.14086626E-02 0.00000000E+00
  14 1 61 -2.14086626E-02 0.00000000E+00
  15 1 61 -2.14086626E-02 0.00000000E+00
  16 1 61 -2.14086626E-02 0.00000000E+00
  17 1 61 -2.14086626E-02 0.00000000E+00
  18 1 61 -2.14086626E-02 0.00000000E+00
  19 1 61 -2.14086626E-02 0.00000000E+00
  20 1 61 -2.14086626E-02 0.00000000E+00
  21 1 61 -2.14086626E-02 0.00000000E+00
  22 1 61 -2.14086626E-02 0.00000000E+00
  23 1 61 -2.14086626E-02 0.00000000E+00
  24 1 61 -2.14086626E-02 0.00000000E+00
  25 1 61 -2.14086626E-02 0.00000000E+00
  26 1 61 -2.14086626E-02 0.00000000E+00
  27 1 61 -2.14086626E-02 0.00000000E+00
  28 1 61 -2.14086626E-02 0.00000000E+00
  29 1 61 -2.14086626E-02 0.00000000E+00
  15 1 80 -2.35755312E-02 0.00000000E+00
  16 1 80 -2.35755312E-02 0.00000000E+00
  17 1 80 -2.35755312E-02 0.00000000E+00
  18 1 80 -2.35755312E-02 0.00000000E+00
  19 1 80 -2.35755312E-02 0.00000000E+00
  20 1 80 -2.35755312E-02 0.00000000E+00
  21 1 80 -2.35755312E-02 0.00000000E+00
  22 1 80 -2.35755312E-02 0.00000000E+00
  23 1 80 -2.35755312E-02 0.00000000E+00
  24 1 80 -2.35755312E-02 0.00000000E+00
  25 1 80 -2.35755312E-02 0.00000000E+00
  26 1 80 -2.35755312E-02 0.00000000E+00
  27 1 80 -2.35755312E-02 0.00000000E+00
  28 1 80 -2.35755312E-02 0.00000000E+00
  29 1 80 -2.35755312E-02 0.00000000E+00
  30 1 80 -2.35755312E-02 0.00000000E+00
  31 1 80 -2.35755312E-02 0.00000000E+00
  32 1 80 -2.35755312E-02 0.00000000E+00
  33 1 80 -2.35755312E-02 0.00000000E+00
  13 1 96 -1.97618424E-02 0.00000000E+00
  14 1 96 -1.97618424E-02 0.00000000E+00
  15 1 96 -1.97618424E-02 0.00000000E+00
  16 1 96 -1.97618424E-02 0.00000000E+00
  17 1 96 -1.97618424E-02 0.00000000E+00
  18 1 96 -1.97618424E-02 0.00000000E+00
  19 1 96 -1.97618424E-02 0.00000000E+00
  20 1 96 -1.97618424E-02 0.00000000E+00
  21 1 96 -1.97618424E-02 0.00000000E+00
  22 1 96 -1.97618424E-02 0.00000000E+00
  23 1 96 -1.97618424E-02 0.00000000E+00
  24 1 96 -1.97618424E-02 0.00000000E+00
  25 1 96 -1.97618424E-02 0.00000000E+00
  26 1 96 -1.97618424E-02 0.00000000E+00
  27 1 96 -1.97618424E-02 0.00000000E+00
  28 1 96 -1.97618424E-02 0.00000000E+00
  29 1 96 -1.97618424E-02 0.00000000E+00
END period  4

BEGIN period  5
  4 1 23 -1.67975660E-02 0.00000000E+00
  5 1 23 -1.67975660E-02 0.00000000E+00
  6 1 23 -1.67975660E-02 0.00000000E+00
  7 1 23 -1.67975660E-02 0.00000000E+00
  8 1 23 -1.67975660E-02 0.00000000E+00
  6 1 36 -2.39965229E-02 0.00000000E+00
  7 1 36 -2.39965229E-02 0.00000000E+00
  8 1 36 -2.39965229E-02 0.00000000E+00
  9 1 36 -2.39965229E-02 0.00000000E+00
  10 1 36 -2.39965229E-02 0.00000000E+00
  11 1 36 -2.39965229E-02 0.00000000E+00
  12 1 36 -2.39965229E-02 0.00000000E+00
  13 1 61 -2.14086626E-02 0.00000000E+00
  14 1 61 -2.14086626E-02 0.00000000E+00
  15 1 61 -2.14086626E-02 0.00000000E+00
  16 1 61 -2.14086626E-02 0.00000000E+00
  17 1 61 -2.14086626E-02 0.00000000E+00
  18 1 61 -2.14086626E-02 0.00000000E+00
  19 1 61 -2.14086626E-02 0.00000000E+00
  20 1 61 -2.14086626E-02 0.00000000E+00
  21 1 61 -2.14086626E-02 0.00000000E+00
  22 1 61 -2.14086626E-02 0.00000000E+00
  23 1 61 -2.14086626E-02 0.00000000E+00
  24 1 61 -2.14086626E-02 0.00000000E+00
  25 1 61 -2.14086626E-02 0.00000000E+00
  26 1 61 -2.14086626E-02 0.00000000E+00
  27 1 61 -2.14086626E-02 0.00000000E+00
  28 1 61 -2.14086626E-02 0.00000000E+00
  29 1 61 -2.14086626E-02 0.00000000E+00
  15 1 80 -2.35755312E-02 0.00000000E+00
  16 1 80 -2.35755312E-02 0.00000000E+00
  17 1 80 -2.35755312E-02 0.00000000E+00
  18 1 80 -2.35755312E-02 0.00000000E+00
  19 1 80 -2.35755312E-02 0.00000000E+00
  20 1 80 -2.35755312E-02 0.00000000E+00
  21 1 80 -2.35755312E-02 0.00000000E+00
  22 1 80 -2.35755312E-02 0.00000000E+00
  23 1 80 -2.35755312E-02 0.00000000E+00
  24 1 80 -2.35755312E-02 0.00000000E+00
  25 1 80 -2.35755312E-02 0.00000000E+00
  26 1 80 -2.35755312E-02 0.00000000E+00
  27 1 80 -2.35755312E-02 0.00000000E+00
  28 1 80 -2.35755312E-02 0.00000000E+00
  29 1 80 -2.35755312E-02 0.00000000E+00
  30 1 80 -2.35755312E-02 0.00000000E+00
  31 1 80 -2.35755312E-02 0.00000000E+00
  32 1 80 -2.35755312E-02 0.00000000E+00
  33 1 80 -2.35755312E-02 0.00000000E+00
  13 1 96 -1.97618424E-02 0.00000000E+00
  14 1 96 -1.97618424E-02 0.00000000E+00
  15 1 96 -1.97618424E-02 0.00000000E+00
  16 1 96 -1.97618424E-02 0.00000000E+00
  17 1 96 -1.97618424E-02 0.00000000E+00
  18 1 96 -1.97618424E-02 0.00000000E+00
  19 1 96 -1.97618424E-02 0.00000000E+00
  20 1 96 -1.97618424E-02 0.00000000E+00
  21 1 96 -1.97618424E-02 0.00000000E+00
  22 1 96 -1.97618424E-02 0.00000000E+00
  23 1 96 -1.97618424E-02 0.00000000E+00
  24 1 96 -1.97618424E-02 0.00000000E+00
  25 1 96 -1.97618424E-02 0.00000000E+00
  26 1 96 -1.97618424E-02 0.00000000E+00
  27 1 96 -1.97618424E-02 0.00000000E+00
  28 1 96 -1.97618424E-02 0.00000000E+00
  29 1 96 -1.97618424E-02 0.00000000E+00
END period  5

BEGIN period  6
  4 1 23 -1.69934643E-02 0.00000000E+00
  5 1 23 -1.69934643E-02 0.00000000E+00
  6 1 23 -1.69934643E-02 0.00000000E+00
  7 1 23 -1.69934643E-02 0.00000000E+00
  8 1 23 -1.69934643E-02 0.00000000E+00
  6 1 36 -2.42763776E-02 0.00000000E+00
  7 1 36 -2.42763776E-02 0.00000000E+00
  8 1 36 -2.42763776E-02 0.00000000E+00
  9 1 36 -2.42763776E-02 0.00000000E+00
  10 1 36 -2.42763776E-02 0.00000000E+00
  11 1 36 -2.42763776E-02 0.00000000E+00
  12 1 36 -2.42763776E-02 0.00000000E+00
  13 1 61 -2.16583368E-02 0.00000000E+00
  14 1 61 -2.16583368E-02 0.00000000E+00
  15 1 61 -2.16583368E-02 0.00000000E+00
  16 1 61 -2.16583368E-02 0.00000000E+00
  17 1 61 -2.16583368E-02 0.00000000E+00
  18 1 61 -2.16583368E-02 0.00000000E+00
  19 1 61 -2.16583368E-02 0.00000000E+00
  20 1 61 -2.16583368E-02 0.00000000E+00
  21 1 61 -2.16583368E-02 0.00000000E+00
  22 1 61 -2.16583368E-02 0.00000000E+00
  23 1 61 -2.16583368E-02 0.00000000E+00
  24 1 61 -2.16583368E-02 0.00000000E+00
  25 1 61 -2.16583368E-02 0.00000000E+00
  26 1 61 -2.16583368E-02 0.00000000E+00
  27 1 61 -2.16583368E-02 0.00000000E+00
  28 1 61 -2.16583368E-02 0.00000000E+00
  29 1 61 -2.16583368E-02 0.00000000E+00
  15 1 80 -2.38504762E-02 0.00000000E+00
  16 1 80 -2.38504762E-02 0.00000000E+00
  17 1 80 -2.38504762E-02 0.00000000E+00
  18 1 80 -2.38504762E-02 0.00000000E+00
  19 1 80 -2.38504762E-02 0.00000000E+00
  20 1 80 -2.38504762E-02 0.00000000E+00
  21 1 80 -2.38504762E-02 0.00000000E+00
  22 1 80 -2.38504762E-02 0.00000000E+00
  23 1 80 -2.38504762E-02 0.00000000E+00
  24 1 80 -2.38504762E-02 0.00000000E+00
  25 1 80 -2.38504762E-02 0.00000000E+00
  26 1 80 -2.38504762E-02 0.00000000E+00
  27 1 80 -2.38504762E-02 0.00000000E+00
  28 1 80 -2.38504762E-02 0.00000000E+00
  29 1 80 -2.38504762E-02 0.00000000E+00
  30 1 80 -2.38504762E-02 0.00000000E+00
  31 1 80 -2.38504762E-02 0.00000000E+00
  32 1 80 -2.38504762E-02 0.00000000E+00
  33 1 80 -2.38504762E-02 0.00000000E+00
  13 1 96 -1.99923109E-02 0.00000000E+00
  14 1 96 -1.99923109E-02 0.00000000E+00
  15 1 96 -1.99923109E-02 0.00000000E+00
  16 1 96 -1.99923109E-02 0.00000000E+00
  17 1 96 -1.99923109E-02 0.00000000E+00
  18 1 96 -1.99923109E-02 0.00000000E+00
  19 1 96 -1.99923109E-02 0.00000000E+00
  20 1 96 -1.99923109E-02 0.00000000E+00
  21 1 96 -1.99923109E-02 0.00000000E+00
  22 1 96 -1.99923109E-02 0.00000000E+00
  23 1 96 -1.99923109E-02 0.00000000E+00
  24 1 96 -1.99923109E-02 0.00000000E+00
  25 1 96 -1.99923109E-02 0.00000000E+00
  26 1 96 -1.99923109E-02 0.00000000E+00
  27 1 96 -1.99923109E-02 0.00000000E+00
  28 1 96 -1.99923109E-02 0.00000000E+00
  29 1 96 -1.99923109E-02 0.00000000E+00
END period  6

BEGIN period  7
  4 1 23 -1.69934643E-02 0.00000000E+00
  5 1 23 -1.69934643E-02 0.00000000E+00
  6 1 23 -1.69934643E-02 0.00000000E+00
  7 1 23 -1.69934643E-02 0.00000000E+00
  8 1 23 -1.69934643E-02 0.00000000E+00
  6 1 36 -2.42763776E-02 0.00000000E+00
  7 1 36 -2.42763776E-02 0.00000000E+00
  8 1 36 -2.42763776E-02 0.00000000E+00
  9 1 36 -2.42763776E-02 0.00000000E+00
  10 1 36 -2.42763776E-02 0.00000000E+00
  11 1 36 -2.42763776E-02 0.00000000E+00
  12 1 36 -2.42763776E-02 0.00000000E+00
  13 1 61 -2.16583368E-02 0.00000000E+00
  14 1 61 -2.16583368E-02 0.00000000E+00
  15 1 61 -2.16583368E-02 0.00000000E+00
  16 1 61 -2.16583368E-02 0.00000000E+00
  17 1 61 -2.16583368E-02 0.00000000E+00
  18 1 61 -2.16583368E-02 0.00000000E+00
  19 1 61 -2.16583368E-02 0.00000000E+00
  20 1 61 -2.16583368E-02 0.00000000E+00
  21 1 61 -2.16583368E-02 0.00000000E+00
  22 1 61 -2.16583368E-02 0.00000000E+00
  23 1 61 -2.16583368E-02 0.00000000E+00
  24 1 61 -2.16583368E-02 0.00000000E+00
  25 1 61 -2.16583368E-02 0.00000000E+00
  26 1 61 -2.16583368E-02 0.00000000E+00
  27 1 61 -2.16583368E-02 0.00000000E+00
  28 1 61 -2.16583368E-02 0.00000000E+00
  29 1 61 -2.16583368E-02 0.00000000E+00
  15 1 80 -2.38504762E-02 0.00000000E+00
  16 1 80 -2.38504762E-02 0.00000000E+00
  17 1 80 -2.38504762E-02 0.00000000E+00
  18 1 80 -2.38504762E-02 0.00000000E+00
  19 1 80 -2.38504762E-02 0.00000000E+00
  20 1 80 -2.38504762E-02 0.00000000E+00
  21 1 80 -2.38504762E-02 0.00000000E+00
  22 1 80 -2.38504762E-02 0.00000000E+00
  23 1 80 -2.38504762E-02 0.00000000E+00
  24 1 80 -2.38504762E-02 0.00000000E+00
  25 1 80 -2.38504762E-02 0.00000000E+00
  26 1 80 -2.38504762E-02 0.00000000E+00
  27 1 80 -2.38504762E-02 0.00000000E+00
  28 1 80 -2.38504762E-02 0.00000000E+00
  29 1 80 -2.38504762E-02 0.00000000E+00
  30 1 80 -2.38504762E-02 0.00000000E+00
  31 1 80 -2.38504762E-02 0.00000000E+00
  32 1 80 -2.38504762E-02 0.00000000E+00
  33 1 80 -2.38504762E-02 0.00000000E+00
  13 1 96 -1.99923109E-02 0.00000000E+00
  14 1 96 -1.99923109E-02 0.00000000E+00
  15 1 96 -1.99923109E-02 0.00000000E+00
  16 1 96 -1.99923109E-02 0.00000000E+00
  17 1 96 -1.99923109E-02 0.00000000E+00
  18 1 96 -1.99923109E-02 0.00000000E+00
  19 1 96 -1.99923109E-02 0.00000000E+00
  20 1 96 -1.99923109E-02 0.00000000E+00
  21 1 96 -1.99923109E-02 0.00000000E+00
  22 1 96 -1.99923109E-02 0.00000000E+00
  23 1 96 -1.99923109E-02 0.00000000E+00
  24 1 96 -1.99923109E-02 0.00000000E+00
  25 1 96 -1.99923109E-02 0.00000000E+00
  26 1 96 -1.99923109E-02 0.00000000E+00
  27 1 96 -1.99923109E-02 0.00000000E+00
  28 1 96 -1.99923109E-02 0.00000000E+00
  29 1 96 -1.99923109E-02 0.00000000E+00
END period  7

BEGIN period  8
  4 1 23 -1.69934643E-02 0.00000000E+00
  5 1 23 -1.69934643E-02 0.00000000E+00
  6 1 23 -1.69934643E-02 0.00000000E+00
  7 1 23 -1.69934643E-02 0.00000000E+00
  8 1 23 -1.69934643E-02 0.00000000E+00
  6 1 36 -2.42763776E-02 0.00000000E+00
  7 1 36 -2.42763776E-02 0.00000000E+00
  8 1 36 -2.42763776E-02 0.00000000E+00
  9 1 36 -2.42763776E-02 0.00000000E+00
  10 1 36 -2.42763776E-02 0.00000000E+00
  11 1 36 -2.42763776E-02 0.00000000E+00
  12 1 36 -2.42763776E-02 0.00000000E+00
  13 1 61 -2.16583368E-02 0.00000000E+00
  14 1 61 -2.16583368E-02 0.00000000E+00
  15 1 61 -2.16583368E-02 0.00000000E+00
  16 1 61 -2.16583368E-02 0.00000000E+00
  17 1 61 -2.16583368E-02 0.00000000E+00
  18 1 61 -2.16583368E-02 0.00000000E+00
  19 1 61 -2.16583368E-02 0.00000000E+00
  20 1 61 -2.16583368E-02 0.00000000E+00
  21 1 61 -2.16583368E-02 0.00000000E+00
  22 1 61 -2.16583368E-02 0.00000000E+00
  23 1 61 -2.16583368E-02 0.00000000E+00
  24 1 61 -2.16583368E-02 0.00000000E+00
  25 1 61 -2.16583368E-02 0.00000000E+00
  26 1 61 -2.16583368E-02 0.00000000E+00
  27 1 61 -2.16583368E-02 0.00000000E+00
  28 1 61 -2.16583368E-02 0.00000000E+00
  29 1 61 -2.16583368E-02 0.00000000E+00
  15 1 80 -2.38504762E-02 0.00000000E+00
  16 1 80 -2.38504762E-02 0.00000000E+00
  17 1 80 -2.38504762E-02 0.00000000E+00
  18 1 80 -2.38504762E-02 0.00000000E+00
  19 1 80 -2.38504762E-02 0.00000000E+00
  20 1 80 -2.38504762E-02 0.00000000E+00
  21 1 80 -2.38504762E-02 0.00000000E+00
  22 1 80 -2.38504762E-02 0.00000000E+00
  23 1 80 -2.38504762E-02 0.00000000E+00
  24 1 80 -2.38504762E-02 0.00000000E+00
  25 1 80 -2.38504762E-02 0.00000000E+00
  26 1 80 -2.38504762E-02 0.00000000E+00
  27 1 80 -2.38504762E-02 0.00000000E+00
  28 1 80 -2.38504762E-02 0.00000000E+00
  29 1 80 -2.38504762E-02 0.00000000E+00
  30 1 80 -2.38504762E-02 0.00000000E+00
  31 1 80 -2.38504762E-02 0.00000000E+00
  32 1 80 -2.38504762E-02 0.00000000E+00
  33 1 80 -2.38504762E-02 0.00000000E+00
  13 1 96 -1.99923109E-02 0.00000000E+00
  14 1 96 -1.99923109E-02 0.00000000E+00
  15 1 96 -1.99923109E-02 0.00000000E+00
  16 1 96 -1.99923109E-02 0.00000000E+00
  17 1 96 -1.99923109E-02 0.00000000E+00
  18 1 96 -1.99923109E-02 0.00000000E+00
  19 1 96 -1.99923109E-02 0.00000000E+00
  20 1 96 -1.99923109E-02 0.00000000E+00
  21 1 96 -1.99923109E-02 0.00000000E+00
  22 1 96 -1.99923109E-02 0.00000000E+00
  23 1 96 -1.99923109E-02 0.00000000E+00
  24 1 96 -1.99923109E-02 0.00000000E+00
  25 1 96 -1.99923109E-02 0.00000000E+00
  26 1 96 -1.99923109E-02 0.00000000E+00
  27 1 96 -1.99923109E-02 0.00000000E+00
  28 1 96 -1.99923109E-02 0.00000000E+00
  29 1 96 -1.99923109E-02 0.00000000E+00
END period  8

BEGIN period  9
  4 1 23 -1.69934643E-02 0.00000000E+00
  5 1 23 -1.69934643E-02 0.00000000E+00
  6 1 23 -1.69934643E-02 0.00000000E+00
  7 1 23 -1.69934643E-02 0.00000000E+00
  8 1 23 -1.69934643E-02 0.00000000E+00
  6 1 36 -2.42763776E-02 0.00000000E+00
  7 1 36 -2.42763776E-02 0.00000000E+00
  8 1 36 -2.42763776E-02 0.00000000E+00
  9 1 36 -2.42763776E-02 0.00000000E+00
  10 1 36 -2.42763776E-02 0.00000000E+00
  11 1 36 -2.42763776E-02 0.00000000E+00
  12 1 36 -2.42763776E-02 0.00000000E+00
  13 1 61 -2.16583368E-02 0.00000000E+00
  14 1 61 -2.16583368E-02 0.00000000E+00
  15 1 61 -2.16583368E-02 0.00000000E+00
  16 1 61 -2.16583368E-02 0.00000000E+00
  17 1 61 -2.16583368E-02 0.00000000E+00
  18 1 61 -2.16583368E-02 0.00000000E+00
  19 1 61 -2.16583368E-02 0.00000000E+00
  20 1 61 -2.16583368E-02 0.00000000E+00
  21 1 61 -2.16583368E-02 0.00000000E+00
  22 1 61 -2.16583368E-02 0.00000000E+00
  23 1 61 -2.16583368E-02 0.00000000E+00
  24 1 61 -2.16583368E-02 0.00000000E+00
  25 1 61 -2.16583368E-02 0.00000000E+00
  26 1 61 -2.16583368E-02 0.00000000E+00
  27 1 61 -2.16583368E-02 0.00000000E+00
  28 1 61 -2.16583368E-02 0.00000000E+00
  29 1 61 -2.16583368E-02 0.00000000E+00
  15 1 80 -2.38504762E-02 0.00000000E+00
  16 1 80 -2.38504762E-02 0.00000000E+00
  17 1 80 -2.38504762E-02 0.00000000E+00
  18 1 80 -2.38504762E-02 0.00000000E+00
  19 1 80 -2.38504762E-02 0.00000000E+00
  20 1 80 -2.38504762E-02 0.00000000E+00
  21 1 80 -2.38504762E-02 0.00000000E+00
  22 1 80 -2.38504762E-02 0.00000000E+00
  23 1 80 -2.38504762E-02 0.00000000E+00
  24 1 80 -2.38504762E-02 0.00000000E+00
  25 1 80 -2.38504762E-02 0.00000000E+00
  26 1 80 -2.38504762E-02 0.00000000E+00
  27 1 80 -2.38504762E-02 0.00000000E+00
  28 1 80 -2.38504762E-02 0.00000000E+00
  29 1 80 -2.38504762E-02 0.00000000E+00
  30 1 80 -2.38504762E-02 0.00000000E+00
  31 1 80 -2.38504762E-02 0.00000000E+00
  32 1 80 -2.38504762E-02 0.00000000E+00
  33 1 80 -2.38504762E-02 0.00000000E+00
  13 1 96 -1.99923109E-02 0.00000000E+00
  14 1 96 -1.99923109E-02 0.00000000E+00
  15 1 96 -1.99923109E-02 0.00000000E+00
  16 1 96 -1.99923109E-02 0.00000000E+00
  17 1 96 -1.99923109E-02 0.00000000E+00
  18 1 96 -1.99923109E-02 0.00000000E+00
  19 1 96 -1.99923109E-02 0.00000000E+00
  20 1 96 -1.99923109E-02 0.00000000E+00
  21 1 96 -1.99923109E-02 0.00000000E+00
  22 1 96 -1.99923109E-02 0.00000000E+00
  23 1 96 -1.99923109E-02 0.00000000E+00
  24 1 96 -1.99923109E-02 0.00000000E+00
  25 1 96 -1.99923109E-02 0.00000000E+00
  26 1 96 -1.99923109E-02 0.00000000E+00
  27 1 96 -1.99923109E-02 0.00000000E+00
  28 1 96 -1.99923109E-02 0.00000000E+00
  29 1 96 -1.99923109E-02 0.00000000E+00
END period  9

BEGIN period  10
  4 1 23 -1.72479760E-02 0.00000000E+00
  5 1 23 -1.72479760E-02 0.00000000E+00
  6 1 23 -1.72479760E-02 0.00000000E+00
  7 1 23 -1.72479760E-02 0.00000000E+00
  8 1 23 -1.72479760E-02 0.00000000E+00
  6 1 36 -2.46399657E-02 0.00000000E+00
  7 1 36 -2.46399657E-02 0.00000000E+00
  8 1 36 -2.46399657E-02 0.00000000E+00
  9 1 36 -2.46399657E-02 0.00000000E+00
  10 1 36 -2.46399657E-02 0.00000000E+00
  11 1 36 -2.46399657E-02 0.00000000E+00
  12 1 36 -2.46399657E-02 0.00000000E+00
  13 1 61 -2.19827145E-02 0.00000000E+00
  14 1 61 -2.19827145E-02 0.00000000E+00
  15 1 61 -2.19827145E-02 0.00000000E+00
  16 1 61 -2.19827145E-02 0.00000000E+00
  17 1 61 -2.19827145E-02 0.00000000E+00
  18 1 61 -2.19827145E-02 0.00000000E+00
  19 1 61 -2.19827145E-02 0.00000000E+00
  20 1 61 -2.19827145E-02 0.00000000E+00
  21 1 61 -2.19827145E-02 0.00000000E+00
  22 1 61 -2.19827145E-02 0.00000000E+00
  23 1 61 -2.19827145E-02 0.00000000E+00
  24 1 61 -2.19827145E-02 0.00000000E+00
  25 1 61 -2.19827145E-02 0.00000000E+00
  26 1 61 -2.19827145E-02 0.00000000E+00
  27 1 61 -2.19827145E-02 0.00000000E+00
  28 1 61 -2.19827145E-02 0.00000000E+00
  29 1 61 -2.19827145E-02 0.00000000E+00
  15 1 80 -2.42076856E-02 0.00000000E+00
  16 1 80 -2.42076856E-02 0.00000000E+00
  17 1 80 -2.42076856E-02 0.00000000E+00
  18 1 80 -2.42076856E-02 0.00000000E+00
  19 1 80 -2.42076856E-02 0.00000000E+00
  20 1 80 -2.42076856E-02 0.00000000E+00
  21 1 80 -2.42076856E-02 0.00000000E+00
  22 1 80 -2.42076856E-02 0.00000000E+00
  23 1 80 -2.42076856E-02 0.00000000E+00
  24 1 80 -2.42076856E-02 0.00000000E+00
  25 1 80 -2.42076856E-02 0.00000000E+00
  26 1 80 -2.42076856E-02 0.00000000E+00
  27 1 80 -2.42076856E-02 0.00000000E+00
  28 1 80 -2.42076856E-02 0.00000000E+00
  29 1 80 -2.42076856E-02 0.00000000E+00
  30 1 80 -2.42076856E-02 0.00000000E+00
  31 1 80 -2.42076856E-02 0.00000000E+00
  32 1 80 -2.42076856E-02 0.00000000E+00
  33 1 80 -2.42076856E-02 0.00000000E+00
  13 1 96 -2.02917364E-02 0.00000000E+00
  14 1 96 -2.02917364E-02 0.00000000E+00
  15 1 96 -2.02917364E-02 0.00000000E+00
  16 1 96 -2.02917364E-02 0.00000000E+00
  17 1 96 -2.02917364E-02 0.00000000E+00
  18 1 96 -2.02917364E-02 0.00000000E+00
  19 1 96 -2.02917364E-02 0.00000000E+00
  20 1 96 -2.02917364E-02 0.00000000E+00
  21 1 96 -2.02917364E-02 0.00000000E+00
  22 1 96 -2.02917364E-02 0.00000000E+00
  23 1 96 -2.02917364E-02 0.00000000E+00
  24 1 96 -2.02917364E-02 0.00000000E+00
  25 1 96 -2.02917364E-02 0.00000000E+00
  26 1 96 -2.02917364E-02 0.00000000E+00
  27 1 96 -2.02917364E-02 0.00000000E+00
  28 1 96 -2.02917364E-02 0.00000000E+00
  29 1 96 -2.02917364E-02 0.00000000E+00
END period  10

BEGIN period  11
  4 1 23 -1.72479760E-02 0.00000000E+00
  5 1 23 -1.72479760E-02 0.00000000E+00
  6 1 23 -1.72479760E-02 0.00000000E+00
  7 1 23 -1.72479760E-02 0.00000000E+00
  8 1 23 -1.72479760E-02 0.00000000E+00
  6 1 36 -2.46399657E-02 0.00000000E+00
  7 1 36 -2.46399657E-02 0.00000000E+00
  8 1 36 -2.46399657E-02 0.00000000E+00
  9 1 36 -2.46399657E-02 0.00000000E+00
  10 1 36 -2.46399657E-02 0.00000000E+00
  11 1 36 -2.46399657E-02 0.00000000E+00
  12 1 36 -2.46399657E-02 0.00000000E+00
  13 1 61 -2.19827145E-02 0.00000000E+00
  14 1 61 -2.19827145E-02 0.00000000E+00
  15 1 61 -2.19827145E-02 0.00000000E+00
  16 1 61 -2.19827145E-02 0.00000000E+00
  17 1 61 -2.19827145E-02 0.00000000E+00
  18 1 61 -2.19827145E-02 0.00000000E+00
  19 1 61 -2.19827145E-02 0.00000000E+00
  20 1 61 -2.19827145E-02 0.00000000E+00
  21 1 61 -2.19827145E-02 0.00000000E+00
  22 1 61 -2.19827145E-02 0.00000000E+00
  23 1 61 -2.19827145E-02 0.00000000E+00
  24 1 61 -2.19827145E-02 0.00000000E+00
  25 1 61 -2.19827145E-02 0.00000000E+00
  26 1 61 -2.19827145E-02 0.00000000E+00
  27 1 61 -2.19827145E-02 0.00000000E+00
  28 1 61 -2.19827145E-02 0.00000000E+00
  29 1 61 -2.19827145E-02 0.00000000E+00
  15 1 80 -2.42076856E-02 0.00000000E+00
  16 1 80 -2.42076856E-02 0.00000000E+00
  17 1 80 -2.42076856E-02 0.00000000E+00
  18 1 80 -2.42076856E-02 0.00000000E+00
  19 1 80 -2.42076856E-02 0.00000000E+00
  20 1 80 -2.42076856E-02 0.00000000E+00
  21 1 80 -2.42076856E-02 0.00000000E+00
  22 1 80 -2.42076856E-02 0.00000000E+00
  23 1 80 -2.42076856E-02 0.00000000E+00
  24 1 80 -2.42076856E-02 0.00000000E+00
  25 1 80 -2.42076856E-02 0.00000000E+00
  26 1 80 -2.42076856E-02 0.00000000E+00
  27 1 80 -2.42076856E-02 0.00000000E+00
  28 1 80 -2.42076856E-02 0.00000000E+00
  29 1 80 -2.42076856E-02 0.00000000E+00
  30 1 80 -2.42076856E-02 0.00000000E+00
  31 1 80 -2.42076856E-02 0.00000000E+00
  32 1 80 -2.42076856E-02 0.00000000E+00
  33 1 80 -2.42076856E-02 0.00000000E+00
  13 1 96 -2.02917364E-02 0.00000000E+00
  14 1 96 -2.02917364E-02 0.00000000E+00
  15 1 96 -2.02917364E-02 0.00000000E+00
  16 1 96 -2.02917364E-02 0.00000000E+00
  17 1 96 -2.02917364E-02 0.00000000E+00
  18 1 96 -2.02917364E-02 0.00000000E+00
  19 1 96 -2.02917364E-02 0.00000000E+00
  20 1 96 -2.02917364E-02 0.00000000E+00
  21 1 96 -2.02917364E-02 0.00000000E+00
  22 1 96 -2.02917364E-02 0.00000000E+00
  23 1 96 -2.02917364E-02 0.00000000E+00
  24 1 96 -2.02917364E-02 0.00000000E+00
  25 1 96 -2.02917364E-02 0.00000000E+00
  26 1 96 -2.02917364E-02 0.00000000E+00
  27 1 96 -2.02917364E-02 0.00000000E+00
  28 1 96 -2.02917364E-02 0.00000000E+00
  29 1 96 -2.02917364E-02 0.00000000E+00
END period  11

BEGIN period  12
  4 1 23 -1.72479760E-02 0.00000000E+00
  5 1 23 -1.72479760E-02 0.00000000E+00
  6 1 23 -1.72479760E-02 0.00000000E+00
  7 1 23 -1.72479760E-02 0.00000000E+00
  8 1 23 -1.72479760E-02 0.00000000E+00
  6 1 36 -2.46399657E-02 0.00000000E+00
  7 1 36 -2.46399657E-02 0.00000000E+00
  8 1 36 -2.46399657E-02 0.00000000E+00
  9 1 36 -2.46399657E-02 0.00000000E+00
  10 1 36 -2.46399657E-02 0.00000000E+00
  11 1 36 -2.46399657E-02 0.00000000E+00
  12 1 36 -2.46399657E-02 0.00000000E+00
  13 1 61 -2.19827145E-02 0.00000000E+00
  14 1 61 -2.19827145E-02 0.00000000E+00
  15 1 61 -2.19827145E-02 0.00000000E+00
  16 1 61 -2.19827145E-02 0.00000000E+00
  17 1 61 -2.19827145E-02 0.00000000E+00
  18 1 61 -2.19827145E-02 0.00000000E+00
  19 1 61 -2.19827145E-02 0.00000000E+00
  20 1 61 -2.19827145E-02 0.00000000E+00
  21 1 61 -2.19827145E-02 0.00000000E+00
  22 1 61 -2.19827145E-02 0.00000000E+00
  23 1 61 -2.19827145E-02 0.00000000E+00
  24 1 61 -2.19827145E-02 0.00000000E+00
  25 1 61 -2.19827145E-02 0.00000000E+00
  26 1 61 -2.19827145E-02 0.00000000E+00
  27 1 61 -2.19827145E-02 0.00000000E+00
  28 1 61 -2.19827145E-02 0.00000000E+00
  29 1 61 -2.19827145E-02 0.00000000E+00
  15 1 80 -2.42076856E-02 0.00000000E+00
  16 1 80 -2.42076856E-02 0.00000000E+00
  17 1 80 -2.42076856E-02 0.00000000E+00
  18 1 80 -2.42076856E-02 0.00000000E+00
  19 1 80 -2.42076856E-02 0.00000000E+00
  20 1 80 -2.42076856E-02 0.00000000E+00
  21 1 80 -2.42076856E-02 0.00000000E+00
  22 1 80 -2.42076856E-02 0.00000000E+00
  23 1 80 -2.42076856E-02 0.00000000E+00
  24 1 80 -2.42076856E-02 0.00000000E+00
  25 1 80 -2.42076856E-02 0.00000000E+00
  26 1 80 -2.42076856E-02 0.00000000E+00
  27 1 80 -2.42076856E-02 0.00000000E+00
  28 1 80 -2.42076856E-02 0.00000000E+00
  29 1 80 -2.42076856E-02 0.00000000E+00
  30 1 80 -2.42076856E-02 0.00000000E+00
  31 1 80 -2.42076856E-02 0.00000000E+00
  32 1 80 -2.42076856E-02 0.00000000E+00
  33 1 80 -2.42076856E-02 0.00000000E+00
  13 1 96 -2.02917364E-02 0.00000000E+00
  14 1 96 -2.02917364E-02 0.00000000E+00
  15 1 96 -2.02917364E-02 0.00000000E+00
  16 1 96 -2.02917364E-02 0.00000000E+00
  17 1 96 -2.02917364E-02 0.00000000E+00
  18 1 96 -2.02917364E-02 0.00000000E+00
  19 1 96 -2.02917364E-02 0.00000000E+00
  20 1 96 -2.02917364E-02 0.00000000E+00
  21 1 96 -2.02917364E-02 0.00000000E+00
  22 1 96 -2.02917364E-02 0.00000000E+00
  23 1 96 -2.02917364E-02 0.00000000E+00
  24 1 96 -2.02917364E-02 0.00000000E+00
  25 1 96 -2.02917364E-02 0.00000000E+00
  26 1 96 -2.02917364E-02 0.00000000E+00
  27 1 96 -2.02917364E-02 0.00000000E+00
  28 1 96 -2.02917364E-02 0.00000000E+00
  29 1 96 -2.02917364E-02 0.00000000E+00
END period  12

BEGIN period  13
  4 1 23 -1.72479760E-02 0.00000000E+00
  5 1 23 -1.72479760E-02 0.00000000E+00
  6 1 23 -1.72479760E-02 0.00000000E+00
  7 1 23 -1.72479760E-02 0.00000000E+00
  8 1 23 -1.72479760E-02 0.00000000E+00