# File generated by Flopy version 3.9.5 on 05/11/2026 at 05:39:27.
BEGIN options
  auxiliary  CONCENTRATION
END options

BEGIN dimensions
  MAXBOUND  160
END dimensions

BEGIN period  1
  1 1 117 1.75248750E+00 2.91666667E-03 0.00000000E+00
  2 1 117 1.75248750E+00 2.91666667E-03 0.00000000E+00
  3 1 117 1.75248750E+00 2.91666667E-03 0.00000000E+00
  4 1 117 1.75248750E+00 2.91666667E-03 0.00000000E+00
  5 1 117 1.75248750E+00 2.91666667E-03 0.00000000E+00
  6 1 117 1.75248750E+00 2.91666667E-03 0.00000000E+00
  7 1 117 1.75248750E+00 2.91666667E-03 0.00000000E+00
  8 1 117 1.75248750E+00 2.91666667E-03 0.00000000E+00
  9 1 117 1.75248750E+00 2.91666667E-03 0.00000000E+00
  10 1 117 1.75248750E+00 2.91666667E-03 0.00000000E+00
  11 1 117 1.75248750E+00 2.91666667E-03 0.00000000E+00
  12 1 117 1.75248750E+00 2.91666667E-03 0.00000000E+00
  13 1 117 1.75248750E+00 2.91666667E-03 0.00000000E+00
  14 1 117 1.75248750E+00 2.91666667E-03 0.00000000E+00
  15 1 117 1.75248750E+00 2.91666667E-03 0.00000000E+00
  16 1 117 1.75248750E+00 2.91666667E-03 0.00000000E+00
  17 1 117 1.75248750E+00 2.91666667E-03 0.00000000E+00
  18 1 117 1.75248750E+00 2.91666667E-03 0.00000000E+00
  19 1 117 1.75248750E+00 2.91666667E-03 0.00000000E+00
  20 1 117 1.75248750E+00 2.91666667E-03 0.00000000E+00
  21 1 117 1.75248750E+00 2.91666667E-03 0.00000000E+00
  22 1 117 1.75248750E+00 2.91666667E-03 0.00000000E+00
  23 1 117 1.75248750E+00 2.91666667E-03 0.00000000E+00
  24 1 117 1.75248750E+00 2.91666667E-03 0.00000000E+00
  25 1 117 1.75248750E+00 2.91666667E-03 0.00000000E+00
  26 1 117 1.75248750E+00 2.91666667E-03 0.00000000E+00
  27 1 117 1.75248750E+00 2.91666667E-03 0.00000000E+00
  28 1 117 1.75248750E+00 2.91666667E-03 0.00000000E+00
  29 1 117 1.75248750E+00 2.91666667E-03 0.00000000E+00
  30 1 117 1.75248750E+00 2.91666667E-03 0.00000000E+00
  31 1 117 1.75248750E+00 2.91666667E-03 0.00000000E+00
  32 1 117 1.75248750E+00 2.91666667E-03 0.00000000E+00
  33 1 117 1.75248750E+00 2.91666667E-03 0.00000000E+00
  34 1 117 1.75248750E+00 2.91666667E-03 0.00000000E+00
  35 1 117 1.75248750E+00 2.91666667E-03 0.00000000E+00
  36 1 117 1.75248750E+00 2.91666667E-03 0.00000000E+00
  37 1 117 1.75248750E+00 2.91666667E-03 0.00000000E+00
  38 1 117 1.75248750E+00 2.91666667E-03 0.00000000E+00
  39 1 117 1.75248750E+00 2.91666667E-03 0.00000000E+00
  40 1 117 1.75248750E+00 2.91666667E-03 0.00000000E+00
  1 1 118 1.75248750E+00 2.91666667E-03 0.00000000E+00
  2 1 118 1.75248750E+00 2.91666667E-03 0.00000000E+00
  3 1 118 1.75248750E+00 2.91666667E-03 0.00000000E+00
  4 1 118 1.75248750E+00 2.91666667E-03 0.00000000E+00
  5 1 118 1.75248750E+00 2.91666667E-03 0.00000000E+00
  6 1 118 1.75248750E+00 2.91666667E-03 0.00000000E+00
  7 1 118 1.75248750E+00 2.91666667E-03 0.00000000E+00
  8 1 118 1.75248750E+00 2.91666667E-03 0.00000000E+00
  9 1 118 1.75248750E+00 2.91666667E-03 0.00000000E+00
  10 1 118 1.75248750E+00 2.91666667E-03 0.00000000E+00
  11 1 118 1.75248750E+00 2.91666667E-03 0.00000000E+00
  12 1 118 1.75248750E+00 2.91666667E-03 0.00000000E+00
  13 1 118 1.75248750E+00 2.91666667E-03 0.00000000E+00
  14 1 118 1.75248750E+00 2.91666667E-03 0.00000000E+00
  15 1 118 1.75248750E+00 2.91666667E-03 0.00000000E+00
  16 1 118 1.75248750E+00 2.91666667E-03 0.00000000E+00
  17 1 118 1.75248750E+00 2.91666667E-03 0.00000000E+00
  18 1 118 1.75248750E+00 2.91666667E-03 0.00000000E+00
  19 1 118 1.75248750E+00 2.91666667E-03 0.00000000E+00
  20 1 118 1.75248750E+00 2.91666667E-03 0.00000000E+00
  21 1 118 1.75248750E+00 2.91666667E-03 0.00000000E+00
  22 1 118 1.75248750E+00 2.91666667E-03 0.00000000E+00
  23 1 118 1.75248750E+00 2.91666667E-03 0.00000000E+00
  24 1 118 1.75248750E+00 2.91666667E-03 0.00000000E+00
  25 1 118 1.75248750E+00 2.91666667E-03 0.00000000E+00
  26 1 118 1.75248750E+00 2.91666667E-03 0.00000000E+00
  27 1 118 1.75248750E+00 2.91666667E-03 0.00000000E+00
  28 1 118 1.75248750E+00 2.91666667E-03 0.00000000E+00
  29 1 118 1.75248750E+00 2.91666667E-03 0.00000000E+00
  30 1 118 1.75248750E+00 2.91666667E-03 0.00000000E+00
  31 1 118 1.75248750E+00 2.91666667E-03 0.00000000E+00
  32 1 118 1.75248750E+00 2.91666667E-03 0.00000000E+00
  33 1 118 1.75248750E+00 2.91666667E-03 0.00000000E+00
  34 1 118 1.75248750E+00 2.91666667E-03 0.00000000E+00
  35 1 118 1.75248750E+00 2.91666667E-03 0.00000000E+00
  36 1 118 1.75248750E+00 2.91666667E-03 0.00000000E+00
  37 1 118 1.75248750E+00 2.91666667E-03 0.00000000E+00
  38 1 118 1.75248750E+00 2.91666667E-03 0.00000000E+00
  39 1 118 1.75248750E+00 2.91666667E-03 0.00000000E+00
  40 1 118 1.75248750E+00 2.91666667E-03 0.00000000E+00
  1 1 119 1.75248750E+00 2.91666667E-03 0.00000000E+00
  2 1 119 1.75248750E+00 2.91666667E-03 0.00000000E+00
  3 1 119 1.75248750E+00 2.91666667E-03 0.00000000E+00
  4 1 119 1.75248750E+00 2.91666667E-03 0.00000000E+00
  5 1 119 1.75248750E+00 2.91666667E-03 0.00000000E+00
  6 1 119 1.75248750E+00 2.91666667E-03 0.00000000E+00
  7 1 119 1.75248750E+00 2.91666667E-03 0.00000000E+00
  8 1 119 1.75248750E+00 2.91666667E-03 0.00000000E+00
  9 1 119 1.75248750E+00 2.91666667E-03 0.00000000E+00
  10 1 119 1.75248750E+00 2.91666667E-03 0.00000000E+00
  11 1 119 1.75248750E+00 2.91666667E-03 0.00000000E+00
  12 1 119 1.75248750E+00 2.91666667E-03 0.00000000E+00
  13 1 119 1.75248750E+00 2.91666667E-03 0.00000000E+00
  14 1 119 1.75248750E+00 2.91666667E-03 0.00000000E+00
  15 1 119 1.75248750E+00 2.91666667E-03 0.00000000E+00
  16 1 119 1.75248750E+00 2.91666667E-03 0.00000000E+00
  17 1 119 1.75248750E+00 2.91666667E-03 0.00000000E+00
  18 1 119 1.75248750E+00 2.91666667E-03 0.00000000E+00
  19 1 119 1.75248750E+00 2.91666667E-03 0.00000000E+00
  20 1 119 1.75248750E+00 2.91666667E-03 0.00000000E+00
  21 1 119 1.75248750E+00 2.91666667E-03 0.00000000E+00
  22 1 119 1.75248750E+00 2.91666667E-03 0.00000000E+00
  23 1 119 1.75248750E+00 2.91666667E-03 0.00000000E+00
  24 1 119 1.75248750E+00 2.91666667E-03 0.00000000E+00
  25 1 119 1.75248750E+00 2.91666667E-03 0.00000000E+00
  26 1 119 1.75248750E+00 2.91666667E-03 0.00000000E+00
  27 1 119 1.75248750E+00 2.91666667E-03 0.00000000E+00
  28 1 119 1.75248750E+00 2.91666667E-03 0.00000000E+00
  29 1 119 1.75248750E+00 2.91666667E-03 0.00000000E+00
  30 1 119 1.75248750E+00 2.91666667E-03 0.00000000E+00
  31 1 119 1.75248750E+00 2.91666667E-03 0.00000000E+00
  32 1 119 1.75248750E+00 2.91666667E-03 0.00000000E+00
  33 1 119 1.75248750E+00 2.91666667E-03 0.00000000E+00
  34 1 119 1.75248750E+00 2.91666667E-03 0.00000000E+00
  35 1 119 1.75248750E+00 2.91666667E-03 0.00000000E+00
  36 1 119 1.75248750E+00 2.91666667E-03 0.00000000E+00
  37 1 119 1.75248750E+00 2.91666667E-03 0.00000000E+00
  38 1 119 1.75248750E+00 2.91666667E-03 0.00000000E+00
  39 1 119 1.75248750E+00 2.91666667E-03 0.00000000E+00
  40 1 119 1.75248750E+00 2.91666667E-03 0.00000000E+00
  1 1 120 1.75248750E+00 2.91666667E-03 0.00000000E+00
  2 1 120 1.75248750E+00 2.91666667E-03 0.00000000E+00
  3 1 120 1.75248750E+00 2.91666667E-03 0.00000000E+00
  4 1 120 1.75248750E+00 2.91666667E-03 0.00000000E+00
  5 1 120 1.75248750E+00 2.91666667E-03 0.00000000E+00
  6 1 120 1.75248750E+00 2.91666667E-03 0.00000000E+00
  7 1 120 1.75248750E+00 2.91666667E-03 0.00000000E+00
  8 1 120 1.75248750E+00 2.91666667E-03 0.00000000E+00
  9 1 120 1.75248750E+00 2.91666667E-03 0.00000000E+00
  10 1 120 1.75248750E+00 2.91666667E-03 0.00000000E+00
  11 1 120 1.75248750E+00 2.91666667E-03 0.00000000E+00
  12 1 120 1.75248750E+00 2.91666667E-03 0.00000000E+00
  13 1 120 1.75248750E+00 2.91666667E-03 0.00000000E+00
  14 1 120 1.75248750E+00 2.91666667E-03 0.00000000E+00
  15 1 120 1.75248750E+00 2.91666667E-03 0.00000000E+00
  16 1 120 1.75248750E+00 2.91666667E-03 0.00000000E+00
  17 1 120 1.75248750E+00 2.91666667E-03 0.00000000E+00
  18 1 120 1.75248750E+00 2.91666667E-03 0.00000000E+00
  19 1 120 1.75248750E+00 2.91666667E-03 0.00000000E+00
  20 1 120 1.75248750E+00 2.91666667E-03 0.00000000E+00
  21 1 120 1.75248750E+00 2.91666667E-03 0.00000000E+00
  22 1 120 1.75248750E+00 2.91666667E-03 0.00000000E+00
  23 1 120 1.75248750E+00 2.91666667E-03 0.00000000E+00
  24 1 120 1.75248750E+00 2.91666667E-03 0.00000000E+00
  25 1 120 1.75248750E+00 2.91666667E-03 0.00000000E+00
  26 1 120 1.75248750E+00 2.91666667E-03 0.00000000E+00
  27 1 120 1.75248750E+00 2.91666667E-03 0.00000000E+00
  28 1 120 1.75248750E+00 2.91666667E-03 0.00000000E+00
  29 1 120 1.75248750E+00 2.91666667E-03 0.00000000E+00
  30 1 120 1.75248750E+00 2.91666667E-03 0.00000000E+00
  31 1 120 1.75248750E+00 2.91666667E-03 0.00000000E+00
  32 1 120 1.75248750E+00 2.91666667E-03 0.00000000E+00
  33 1 120 1.75248750E+00 2.91666667E-03 0.00000000E+00
  34 1 120 1.75248750E+00 2.91666667E-03 0.00000000E+00
  35 1 120 1.75248750E+00 2.91666667E-03 0.00000000E+00
  36 1 120 1.75248750E+00 2.91666667E-03 0.00000000E+00
  37 1 120 1.75248750E+00 2.91666667E-03 0.00000000E+00
  38 1 120 1.75248750E+00 2.91666667E-03 0.00000000E+00
  39 1 120 1.75248750E+00 2.91666667E-03 0.00000000E+00
  40 1 120 1.75248750E+00 2.91666667E-03 0.00000000E+00
END period  1

BEGIN period  2
  1 1 117 9.81000000E-01 2.91666667E-03 0.00000000E+00
  2 1 117 9.81000000E-01 2.91666667E-03 0.00000000E+00
  3 1 117 9.81000000E-01 2.91666667E-03 0.00000000E+00
  4 1 117 9.81000000E-01 2.91666667E-03 0.00000000E+00
  5 1 117 9.81000000E-01 2.91666667E-03 0.00000000E+00
  6 1 117 9.81000000E-01 2.91666667E-03 0.00000000E+00
  7 1 117 9.81000000E-01 2.91666667E-03 0.00000000E+00
  8 1 117 9.81000000E-01 2.91666667E-03 0.00000000E+00
  9 1 117 9.81000000E-01 2.91666667E-03 0.00000000E+00
  10 1 117 9.81000000E-01 2.91666667E-03 0.00000000E+00
  11 1 117 9.81000000E-01 2.91666667E-03 0.00000000E+00
  12 1 117 9.81000000E-01 2.91666667E-03 0.00000000E+00
  13 1 117 9.81000000E-01 2.91666667E-03 0.00000000E+00
  14 1 117 9.81000000E-01 2.91666667E-03 0.00000000E+00
  15 1 117 9.81000000E-01 2.91666667E-03 0.00000000E+00
  16 1 117 9.81000000E-01 2.91666667E-03 0.00000000E+00
  17 1 117 9.81000000E-01 2.91666667E-03 0.00000000E+00
  18 1 117 9.81000000E-01 2.91666667E-03 0.00000000E+00
  19 1 117 9.81000000E-01 2.91666667E-03 0.00000000E+00
  20 1 117 9.81000000E-01 2.91666667E-03 0.00000000E+00
  21 1 117 9.81000000E-01 2.91666667E-03 0.00000000E+00
  22 1 117 9.81000000E-01 2.91666667E-03 0.00000000E+00
  23 1 117 9.81000000E-01 2.91666667E-03 0.00000000E+00
  24 1 117 9.81000000E-01 2.91666667E-03 0.00000000E+00
  25 1 117 9.81000000E-01 2.91666667E-03 0.00000000E+00
  26 1 117 9.81000000E-01 2.91666667E-03 0.00000000E+00
  27 1 117 9.81000000E-01 2.91666667E-03 0.00000000E+00
  28 1 117 9.81000000E-01 2.91666667E-03 0.00000000E+00
  29 1 117 9.81000000E-01 2.91666667E-03 0.00000000E+00
  30 1 117 9.81000000E-01 2.91666667E-03 0.00000000E+00
  31 1 117 9.81000000E-01 2.91666667E-03 0.00000000E+00
  32 1 117 9.81000000E-01 2.91666667E-03 0.00000000E+00
  33 1 117 9.81000000E-01 2.91666667E-03 0.00000000E+00
  34 1 117 9.81000000E-01 2.91666667E-03 0.00000000E+00
  35 1 117 9.81000000E-01 2.91666667E-03 0.00000000E+00
  36 1 117 9.81000000E-01 2.91666667E-03 0.00000000E+00
  37 1 117 9.81000000E-01 2.91666667E-03 0.00000000E+00
  38 1 117 9.81000000E-01 2.91666667E-03 0.00000000E+00
  39 1 117 9.81000000E-01 2.91666667E-03 0.00000000E+00
  40 1 117 9.81000000E-01 2.91666667E-03 0.00000000E+00
  1 1 118 9.81000000E-01 2.91666667E-03 0.00000000E+00
  2 1 118 9.81000000E-01 2.91666667E-03 0.00000000E+00
  3 1 118 9.81000000E-01 2.91666667E-03 0.00000000E+00
  4 1 118 9.81000000E-01 2.91666667E-03 0.00000000E+00
  5 1 118 9.81000000E-01 2.91666667E-03 0.00000000E+00
  6 1 118 9.81000000E-01 2.91666667E-03 0.00000000E+00
  7 1 118 9.81000000E-01 2.91666667E-03 0.00000000E+00
  8 1 118 9.81000000E-01 2.91666667E-03 0.00000000E+00
  9 1 118 9.81000000E-01 2.91666667E-03 0.00000000E+00
  10 1 118 9.81000000E-01 2.91666667E-03 0.00000000E+00
  11 1 118 9.81000000E-01 2.91666667E-03 0.00000000E+00
  12 1 118 9.81000000E-01 2.91666667E-03 0.00000000E+00
  13 1 118 9.81000000E-01 2.91666667E-03 0.00000000E+00
  14 1 118 9.81000000E-01 2.91666667E-03 0.00000000E+00
  15 1 118 9.81000000E-01 2.91666667E-03 0.00000000E+00
  16 1 118 9.81000000E-01 2.91666667E-03 0.00000000E+00
  17 1 118 9.81000000E-01 2.91666667E-03 0.00000000E+00
  18 1 118 9.81000000E-01 2.91666667E-03 0.00000000E+00
  19 1 118 9.81000000E-01 2.91666667E-03 0.00000000E+00
  20 1 118 9.81000000E-01 2.91666667E-03 0.00000000E+00
  21 1 118 9.81000000E-01 2.91666667E-03 0.00000000E+00
  22 1 118 9.81000000E-01 2.91666667E-03 0.00000000E+00
  23 1 118 9.81000000E-01 2.91666667E-03 0.00000000E+00
  24 1 118 9.81000000E-01 2.91666667E-03 0.00000000E+00
  25 1 118 9.81000000E-01 2.91666667E-03 0.00000000E+00
  26 1 118 9.81000000E-01 2.91666667E-03 0.00000000E+00
  27 1 118 9.81000000E-01 2.91666667E-03 0.00000000E+00
  28 1 118 9.81000000E-01 2.91666667E-03 0.00000000E+00
  29 1 118 9.81000000E-01 2.91666667E-03 0.00000000E+00
  30 1 118 9.81000000E-01 2.91666667E-03 0.00000000E+00
  31 1 118 9.81000000E-01 2.91666667E-03 0.00000000E+00
  32 1 118 9.81000000E-01 2.91666667E-03 0.00000000E+00
  33 1 118 9.81000000E-01 2.91666667E-03 0.00000000E+00
  34 1 118 9.81000000E-01 2.91666667E-03 0.00000000E+00
  35 1 118 9.81000000E-01 2.91666667E-03 0.00000000E+00
  36 1 118 9.81000000E-01 2.91666667E-03 0.00000000E+00
  37 1 118 9.81000000E-01 2.91666667E-03 0.00000000E+00
  38 1 118 9.81000000E-01 2.91666667E-03 0.00000000E+00
  39 1 118 9.81000000E-01 2.91666667E-03 0.00000000E+00
  40 1 118 9.81000000E-01 2.91666667E-03 0.00000000E+00
  1 1 119 9.81000000E-01 2.91666667E-03 0.00000000E+00
  2 1 119 9.81000000E-01 2.91666667E-03 0.00000000E+00
  3 1 119 9.81000000E-01 2.91666667E-03 0.00000000E+00
  4 1 119 9.81000000E-01 2.91666667E-03 0.00000000E+00
  5 1 119 9.81000000E-01 2.91666667E-03 0.00000000E+00
  6 1 119 9.81000000E-01 2.91666667E-03 0.00000000E+00
  7 1 119 9.81000000E-01 2.91666667E-03 0.00000000E+00
  8 1 119 9.81000000E-01 2.91666667E-03 0.00000000E+00
  9 1 119 9.81000000E-01 2.91666667E-03 0.00000000E+00
  10 1 119 9.81000000E-01 2.91666667E-03 0.00000000E+00
  11 1 119 9.81000000E-01 2.91666667E-03 0.00000000E+00
  12 1 119 9.81000000E-01 2.91666667E-03 0.00000000E+00
  13 1 119 9.81000000E-01 2.91666667E-03 0.00000000E+00
  14 1 119 9.81000000E-01 2.91666667E-03 0.00000000E+00
  15 1 119 9.81000000E-01 2.91666667E-03 0.00000000E+00
  16 1 119 9.81000000E-01 2.91666667E-03 0.00000000E+00
  17 1 119 9.81000000E-01 2.91666667E-03 0.00000000E+00
  18 1 119 9.81000000E-01 2.91666667E-03 0.00000000E+00
  19 1 119 9.81000000E-01 2.91666667E-03 0.00000000E+00
  20 1 119 9.81000000E-01 2.91666667E-03 0.00000000E+00
  21 1 119 9.81000000E-01 2.91666667E-03 0.00000000E+00
  22 1 119 9.81000000E-01 2.91666667E-03 0.00000000E+00
  23 1 119 9.81000000E-01 2.91666667E-03 0.00000000E+00
  24 1 119 9.81000000E-01 2.91666667E-03 0.00000000E+00
  25 1 119 9.81000000E-01 2.91666667E-03 0.00000000E+00
  26 1 119 9.81000000E-01 2.91666667E-03 0.00000000E+00
  27 1 119 9.81000000E-01 2.91666667E-03 0.00000000E+00
  28 1 119 9.81000000E-01 2.91666667E-03 0.00000000E+00
  29 1 119 9.81000000E-01 2.91666667E-03 0.00000000E+00
  30 1 119 9.81000000E-01 2.91666667E-03 0.00000000E+00
  31 1 119 9.81000000E-01 2.91666667E-03 0.00000000E+00
  32 1 119 9.81000000E-01 2.91666667E-03 0.00000000E+00
  33 1 119 9.81000000E-01 2.91666667E-03 0.00000000E+00
  34 1 119 9.81000000E-01 2.91666667E-03 0.00000000E+00
  35 1 119 9.81000000E-01 2.91666667E-03 0.00000000E+00
  36 1 119 9.81000000E-01 2.91666667E-03 0.00000000E+00
  37 1 119 9.81000000E-01 2.91666667E-03 0.00000000E+00
  38 1 119 9.81000000E-01 2.91666667E-03 0.00000000E+00
  39 1 119 9.81000000E-01 2.91666667E-03 0.00000000E+00
  40 1 119 9.81000000E-01 2.91666667E-03 0.00000000E+00
  1 1 120 9.81000000E-01 2.91666667E-03 0.00000000E+00
  2 1 120 9.81000000E-01 2.91666667E-03 0.00000000E+00
  3 1 120 9.81000000E-01 2.91666667E-03 0.00000000E+00
  4 1 120 9.81000000E-01 2.91666667E-03 0.00000000E+00
  5 1 120 9.81000000E-01 2.91666667E-03 0.00000000E+00
  6 1 120 9.81000000E-01 2.91666667E-03 0.00000000E+00
  7 1 120 9.81000000E-01 2.91666667E-03 0.00000000E+00
  8 1 120 9.81000000E-01 2.91666667E-03 0.00000000E+00
  9 1 120 9.81000000E-01 2.91666667E-03 0.00000000E+00
  10 1 120 9.81000000E-01 2.91666667E-03 0.00000000E+00
  11 1 120 9.81000000E-01 2.91666667E-03 0.00000000E+00
  12 1 120 9.81000000E-01 2.91666667E-03 0.00000000E+00
  13 1 120 9.81000000E-01 2.91666667E-03 0.00000000E+00
  14 1 120 9.81000000E-01 2.91666667E-03 0.00000000E+00
  15 1 120 9.81000000E-01 2.91666667E-03 0.00000000E+00
  16 1 120 9.81000000E-01 2.91666667E-03 0.00000000E+00
  17 1 120 9.81000000E-01 2.91666667E-03 0.00000000E+00
  18 1 120 9.81000000E-01 2.91666667E-03 0.00000000E+00
  19 1 120 9.81000000E-01 2.91666667E-03 0.00000000E+00
  20 1 120 9.81000000E-01 2.91666667E-03 0.00000000E+00
  21 1 120 9.81000000E-01 2.91666667E-03 0.00000000E+00
  22 1 120 9.81000000E-01 2.91666667E-03 0.00000000E+00
  23 1 120 9.81000000E-01 2.91666667E-03 0.00000000E+00
  24 1 120 9.81000000E-01 2.91666667E-03 0.00000000E+00
  25 1 120 9.81000000E-01 2.91666667E-03 0.00000000E+00
  26 1 120 9.81000000E-01 2.91666667E-03 0.00000000E+00
  27 1 120 9.81000000E-01 2.91666667E-03 0.00000000E+00
  28 1 120 9.81000000E-01 2.91666667E-03 0.00000000E+00
  29 1 120 9.81000000E-01 2.91666667E-03 0.00000000E+00
  30 1 120 9.81000000E-01 2.91666667E-03 0.00000000E+00
  31 1 120 9.81000000E-01 2.91666667E-03 0.00000000E+00
  32 1 120 9.81000000E-01 2.91666667E-03 0.00000000E+00
  33 1 120 9.81000000E-01 2.91666667E-03 0.00000000E+00
  34 1 120 9.81000000E-01 2.91666667E-03 0.00000000E+00
  35 1 120 9.81000000E-01 2.91666667E-03 0.00000000E+00
  36 1 120 9.81000000E-01 2.91666667E-03 0.00000000E+00
  37 1 120 9.81000000E-01 2.91666667E-03 0.00000000E+00
  38 1 120 9.81000000E-01 2.91666667E-03 0.00000000E+00
  39 1 120 9.81000000E-01 2.91666667E-03 0.00000000E+00
  40 1 120 9.81000000E-01 2.91666667E-03 0.00000000E+00
END period  2

BEGIN period  3
  1 1 117 4.50000000E-01 2.91666667E-03 0.00000000E+00
  2 1 117 4.50000000E-01 2.91666667E-03 0.00000000E+00
  3 1 117 4.50000000E-01 2.91666667E-03 0.00000000E+00
  4 1 117 4.50000000E-01 2.91666667E-03 0.00000000E+00
  5 1 117 4.50000000E-01 2.91666667E-03 0.00000000E+00
  6 1 117 4.50000000E-01 2.91666667E-03 0.00000000E+00
  7 1 117 4.50000000E-01 2.91666667E-03 0.00000000E+00
  8 1 117 4.50000000E-01 2.91666667E-03 0.00000000E+00
  9 1 117 4.50000000E-01 2.91666667E-03 0.00000000E+00
  10 1 117 4.50000000E-01 2.91666667E-03 0.00000000E+00
  11 1 117 4.50000000E-01 2.91666667E-03 0.00000000E+00
  12 1 117 4.50000000E-01 2.91666667E-03 0.00000000E+00
  13 1 117 4.50000000E-01 2.91666667E-03 0.00000000E+00
  14 1 117 4.50000000E-01 2.91666667E-03 0.00000000E+00
  15 1 117 4.50000000E-01 2.91666667E-03 0.00000000E+00
  16 1 117 4.50000000E-01 2.91666667E-03 0.00000000E+00
  17 1 117 4.50000000E-01 2.91666667E-03 0.00000000E+00
  18 1 117 4.50000000E-01 2.91666667E-03 0.00000000E+00
  19 1 117 4.50000000E-01 2.91666667E-03 0.00000000E+00
  20 1 117 4.50000000E-01 2.91666667E-03 0.00000000E+00
  21 1 117 4.50000000E-01 2.91666667E-03 0.00000000E+00
  22 1 117 4.50000000E-01 2.91666667E-03 0.00000000E+00
  23 1 117 4.50000000E-01 2.91666667E-03 0.00000000E+00
  24 1 117 4.50000000E-01 2.91666667E-03 0.00000000E+00
  25 1 117 4.50000000E-01 2.91666667E-03 0.00000000E+00
  26 1 117 4.50000000E-01 2.91666667E-03 0.00000000E+00
  27 1 117 4.50000000E-01 2.91666667E-03 0.00000000E+00
  28 1 117 4.50000000E-01 2.91666667E-03 0.00000000E+00
  29 1 117 4.50000000E-01 2.91666667E-03 0.00000000E+00
  30 1 117 4.50000000E-01 2.91666667E-03 0.00000000E+00
  31 1 117 4.50000000E-01 2.91666667E-03 0.00000000E+00
  32 1 117 4.50000000E-01 2.91666667E-03 0.00000000E+00
  33 1 117 4.50000000E-01 2.91666667E-03 0.00000000E+00
  34 1 117 4.50000000E-01 2.91666667E-03 0.00000000E+00
  35 1 117 4.50000000E-01 2.91666667E-03 0.00000000E+00
  36 1 117 4.50000000E-01 2.91666667E-03 0.00000000E+00
  37 1 117 4.50000000E-01 2.91666667E-03 0.00000000E+00
  38 1 117 4.50000000E-01 2.91666667E-03 0.00000000E+00
  39 1 117 4.50000000E-01 2.91666667E-03 0.00000000E+00
  40 1 117 4.50000000E-01 2.91666667E-03 0.00000000E+00
  1 1 118 4.50000000E-01 2.91666667E-03 0.00000000E+00
  2 1 118 4.50000000E-01 2.91666667E-03 0.00000000E+00
  3 1 118 4.50000000E-01 2.91666667E-03 0.00000000E+00
  4 1 118 4.50000000E-01 2.91666667E-03 0.00000000E+00
  5 1 118 4.50000000E-01 2.91666667E-03 0.00000000E+00
  6 1 118 4.50000000E-01 2.91666667E-03 0.00000000E+00
  7 1 118 4.50000000E-01 2.91666667E-03 0.00000000E+00
  8 1 118 4.50000000E-01 2.91666667E-03 0.00000000E+00
  9 1 118 4.50000000E-01 2.91666667E-03 0.00000000E+00
  10 1 118 4.50000000E-01 2.91666667E-03 0.00000000E+00
  11 1 118 4.50000000E-01 2.91666667E-03 0.00000000E+00
  12 1 118 4.50000000E-01 2.91666667E-03 0.00000000E+00
  13 1 118 4.50000000E-01 2.91666667E-03 0.00000000E+00
  14 1 118 4.50000000E-01 2.91666667E-03 0.00000000E+00
  15 1 118 4.50000000E-01 2.91666667E-03 0.00000000E+00
  16 1 118 4.50000000E-01 2.91666667E-03 0.00000000E+00
  17 1 118 4.50000000E-01 2.91666667E-03 0.00000000E+00
  18 1 118 4.50000000E-01 2.91666667E-03 0.00000000E+00
  19 1 118 4.50000000E-01 2.91666667E-03 0.00000000E+00
  20 1 118 4.50000000E-01 2.91666667E-03 0.00000000E+00
  21 1 118 4.50000000E-01 2.91666667E-03 0.00000000E+00
  22 1 118 4.50000000E-01 2.91666667E-03 0.00000000E+00
  23 1 118 4.50000000E-01 2.91666667E-03 0.00000000E+00
  24 1 118 4.50000000E-01 2.91666667E-03 0.00000000E+00
  25 1 118 4.50000000E-01 2.91666667E-03 0.00000000E+00
  26 1 118 4.50000000E-01 2.91666667E-03 0.00000000E+00
  27 1 118 4.50000000E-01 2.91666667E-03 0.00000000E+00
  28 1 118 4.50000000E-01 2.91666667E-03 0.00000000E+00
  29 1 118 4.50000000E-01 2.91666667E-03 0.00000000E+00
  30 1 118 4.50000000E-01 2.91666667E-03 0.00000000E+00
  31 1 118 4.50000000E-01 2.91666667E-03 0.00000000E+00
  32 1 118 4.50000000E-01 2.91666667E-03 0.00000000E+00
  33 1 118 4.50000000E-01 2.91666667E-03 0.00000000E+00
  34 1 118 4.50000000E-01 2.91666667E-03 0.00000000E+00
  35 1 118 4.50000000E-01 2.91666667E-03 0.00000000E+00
  36 1 118 4.50000000E-01 2.91666667E-03 0.00000000E+00
  37 1 118 4.50000000E-01 2.91666667E-03 0.00000000E+00
  38 1 118 4.50000000E-01 2.91666667E-03 0.00000000E+00
  39 1 118 4.50000000E-01 2.91666667E-03 0.00000000E+00
  40 1 118 4.50000000E-01 2.91666667E-03 0.00000000E+00
  1 1 119 4.50000000E-01 2.91666667E-03 0.00000000E+00
  2 1 119 4.50000000E-01 2.91666667E-03 0.00000000E+00
  3 1 119 4.50000000E-01 2.91666667E-03 0.00000000E+00
  4 1 119 4.50000000E-01 2.91666667E-03 0.00000000E+00
  5 1 119 4.50000000E-01 2.91666667E-03 0.00000000E+00
  6 1 119 4.50000000E-01 2.91666667E-03 0.00000000E+00
  7 1 119 4.50000000E-01 2.91666667E-03 0.00000000E+00
  8 1 119 4.50000000E-01 2.91666667E-03 0.00000000E+00
  9 1 119 4.50000000E-01 2.91666667E-03 0.00000000E+00
  10 1 119 4.50000000E-01 2.91666667E-03 0.00000000E+00
  11 1 119 4.50000000E-01 2.91666667E-03 0.00000000E+00
  12 1 119 4.50000000E-01 2.91666667E-03 0.00000000E+00
  13 1 119 4.50000000E-01 2.91666667E-03 0.00000000E+00
  14 1 119 4.50000000E-01 2.91666667E-03 0.00000000E+00
  15 1 119 4.50000000E-01 2.91666667E-03 0.00000000E+00
  16 1 119 4.50000000E-01 2.91666667E-03 0.00000000E+00
  17 1 119 4.50000000E-01 2.91666667E-03 0.00000000E+00
  18 1 119 4.50000000E-01 2.91666667E-03 0.00000000E+00
  19 1 119 4.50000000E-01 2.91666667E-03 0.00000000E+00
  20 1 119 4.50000000E-01 2.91666667E-03 0.00000000E+00
  21 1 119 4.50000000E-01 2.91666667E-03 0.00000000E+00
  22 1 119 4.50000000E-01 2.91666667E-03 0.00000000E+00
  23 1 119 4.50000000E-01 2.91666667E-03 0.00000000E+00
  24 1 119 4.50000000E-01 2.91666667E-03 0.00000000E+00
  25 1 119 4.50000000E-01 2.91666667E-03 0.00000000E+00
  26 1 119 4.50000000E-01 2.91666667E-03 0.00000000E+00
  27 1 119 4.50000000E-01 2.91666667E-03 0.00000000E+00
  28 1 119 4.50000000E-01 2.91666667E-03 0.00000000E+00
  29 1 119 4.50000000E-01 2.91666667E-03 0.00000000E+00
  30 1 119 4.50000000E-01 2.91666667E-03 0.00000000E+00
  31 1 119 4.50000000E-01 2.91666667E-03 0.00000000E+00
  32 1 119 4.50000000E-01 2.91666667E-03 0.00000000E+00
  33 1 119 4.50000000E-01 2.91666667E-03 0.00000000E+00
  34 1 119 4.50000000E-01 2.91666667E-03 0.00000000E+00
  35 1 119 4.50000000E-01 2.91666667E-03 0.00000000E+00
  36 1 119 4.50000000E-01 2.91666667E-03 0.00000000E+00
  37 1 119 4.50000000E-01 2.91666667E-03 0.00000000E+00
  38 1 119 4.50000000E-01 2.91666667E-03 0.00000000E+00
  39 1 119 4.50000000E-01 2.91666667E-03 0.00000000E+00
  40 1 119 4.50000000E-01 2.91666667E-03 0.00000000E+00
  1 1 120 4.50000000E-01 2.91666667E-03 0.00000000E+00
  2 1 120 4.50000000E-01 2.91666667E-03 0.00000000E+00
  3 1 120 4.50000000E-01 2.91666667E-03 0.00000000E+00
  4 1 120 4.50000000E-01 2.91666667E-03 0.00000000E+00
  5 1 120 4.50000000E-01 2.91666667E-03 0.00000000E+00
  6 1 120 4.50000000E-01 2.91666667E-03 0.00000000E+00
  7 1 120 4.50000000E-01 2.91666667E-03 0.00000000E+00
  8 1 120 4.50000000E-01 2.91666667E-03 0.00000000E+00
  9 1 120 4.50000000E-01 2.91666667E-03 0.00000000E+00
  10 1 120 4.50000000E-01 2.91666667E-03 0.00000000E+00
  11 1 120 4.50000000E-01 2.91666667E-03 0.00000000E+00
  12 1 120 4.50000000E-01 2.91666667E-03 0.00000000E+00
  13 1 120 4.50000000E-01 2.91666667E-03 0.00000000E+00
  14 1 120 4.50000000E-01 2.91666667E-03 0.00000000E+00
  15 1 120 4.50000000E-01 2.91666667E-03 0.00000000E+00
  16 1 120 4.50000000E-01 2.91666667E-03 0.00000000E+00
  17 1 120 4.50000000E-01 2.91666667E-03 0.00000000E+00
  18 1 120 4.50000000E-01 2.91666667E-03 0.00000000E+00
  19 1 120 4.50000000E-01 2.91666667E-03 0.00000000E+00
  20 1 120 4.50000000E-01 2.91666667E-03 0.00000000E+00
  21 1 120 4.50000000E-01 2.91666667E-03 0.00000000E+00
  22 1 120 4.50000000E-01 2.91666667E-03 0.00000000E+00
  23 1 120 4.50000000E-01 2.91666667E-03 0.00000000E+00
  24 1 120 4.50000000E-01 2.91666667E-03 0.00000000E+00
  25 1 120 4.50000000E-01 2.91666667E-03 0.00000000E+00
  26 1 120 4.50000000E-01 2.91666667E-03 0.00000000E+00
  27 1 120 4.50000000E-01 2.91666667E-03 0.00000000E+00
  28 1 120 4.50000000E-01 2.91666667E-03 0.00000000E+00
  29 1 120 4.50000000E-01 2.91666667E-03 0.00000000E+00
  30 1 120 4.50000000E-01 2.91666667E-03 0.00000000E+00
  31 1 120 4.50000000E-01 2.91666667E-03 0.00000000E+00
  32 1 120 4.50000000E-01 2.91666667E-03 0.00000000E+00
  33 1 120 4.50000000E-01 2.91666667E-03 0.00000000E+00
  34 1 120 4.50000000E-01 2.91666667E-03 0.00000000E+00
  35 1 120 4.50000000E-01 2.91666667E-03 0.00000000E+00
  36 1 120 4.50000000E-01 2.91666667E-03 0.00000000E+00
  37 1 120 4.50000000E-01 2.91666667E-03 0.00000000E+00
  38 1 120 4.50000000E-01 2.91666667E-03 0.00000000E+00
  39 1 120 4.50000000E-01 2.91666667E-03 0.00000000E+00
  40 1 120 4.50000000E-01 2.91666667E-03 0.00000000E+00
END period  3

BEGIN period  4
  1 1 117 2.88450000E+00 2.91666667E-03 0.00000000E+00
  2 1 117 2.88450000E+00 2.91666667E-03 0.00000000E+00
  3 1 117 2.88450000E+00 2.91666667E-03 0.00000000E+00
  4 1 117 2.88450000E+00 2.91666667E-03 0.00000000E+00
  5 1 117 2.88450000E+00 2.91666667E-03 0.00000000E+00
  6 1 117 2.88450000E+00 2.91666667E-03 0.00000000E+00
  7 1 117 2.88450000E+00 2.91666667E-03 0.00000000E+00
  8 1 117 2.88450000E+00 2.91666667E-03 0.00000000E+00
  9 1 117 2.88450000E+00 2.91666667E-03 0.00000000E+00
  10 1 117 2.88450000E+00 2.91666667E-03 0.00000000E+00
  11 1 117 2.88450000E+00 2.91666667E-03 0.00000000E+00
  12 1 117 2.88450000E+00 2.91666667E-03 0.00000000E+00
  13 1 117 2.88450000E+00 2.91666667E-03 0.00000000E+00
  14 1 117 2.88450000E+00 2.91666667E-03 0.00000000E+00
  15 1 117 2.88450000E+00 2.91666667E-03 0.00000000E+00
  16 1 117 2.88450000E+00 2.91666667E-03 0.00000000E+00
  17 1 117 2.88450000E+00 2.91666667E-03 0.00000000E+00
  18 1 117 2.88450000E+00 2.91666667E-03 0.00000000E+00
  19 1 117 2.88450000E+00 2.91666667E-03 0.00000000E+00
  20 1 117 2.88450000E+00 2.91666667E-03 0.00000000E+00
  21 1 117 2.88450000E+00 2.91666667E-03 0.00000000E+00
  22 1 117 2.88450000E+00 2.91666667E-03 0.00000000E+00
  23 1 117 2.88450000E+00 2.91666667E-03 0.00000000E+00
  24 1 117 2.88450000E+00 2.91666667E-03 0.00000000E+00
  25 1 117 2.88450000E+00 2.91666667E-03 0.00000000E+00
  26 1 117 2.88450000E+00 2.91666667E-03 0.00000000E+00
  27 1 117 2.88450000E+00 2.91666667E-03 0.00000000E+00
  28 1 117 2.88450000E+00 2.91666667E-03 0.00000000E+00
  29 1 117 2.88450000E+00 2.91666667E-03 0.00000000E+00
  30 1 117 2.88450000E+00 2.91666667E-03 0.00000000E+00
  31 1 117 2.88450000E+00 2.91666667E-03 0.00000000E+00
  32 1 117 2.88450000E+00 2.91666667E-03 0.00000000E+00
  33 1 117 2.88450000E+00 2.91666667E-03 0.00000000E+00
  34 1 117 2.88450000E+00 2.91666667E-03 0.00000000E+00
  35 1 117 2.88450000E+00 2.91666667E-03 0.00000000E+00
  36 1 117 2.88450000E+00 2.91666667E-03 0.00000000E+00
  37 1 117 2.88450000E+00 2.91666667E-03 0.00000000E+00
  38 1 117 2.88450000E+00 2.91666667E-03 0.00000000E+00
  39 1 117 2.88450000E+00 2.91666667E-03 0.00000000E+00
  40 1 117 2.88450000E+00 2.91666667E-03 0.00000000E+00
  1 1 118 2.88450000E+00 2.91666667E-03 0.00000000E+00
  2 1 118 2.88450000E+00 2.91666667E-03 0.00000000E+00
  3 1 118 2.88450000E+00 2.91666667E-03 0.00000000E+00
  4 1 118 2.88450000E+00 2.91666667E-03 0.00000000E+00
  5 1 118 2.88450000E+00 2.91666667E-03 0.00000000E+00
  6 1 118 2.88450000E+00 2.91666667E-03 0.00000000E+00
  7 1 118 2.88450000E+00 2.91666667E-03 0.00000000E+00
  8 1 118 2.88450000E+00 2.91666667E-03 0.00000000E+00
  9 1 118 2.88450000E+00 2.91666667E-03 0.00000000E+00
  10 1 118 2.88450000E+00 2.91666667E-03 0.00000000E+00
  11 1 118 2.88450000E+00 2.91666667E-03 0.00000000E+00
  12 1 118 2.88450000E+00 2.91666667E-03 0.00000000E+00