# File generated by Flopy version 3.9.5 on 05/11/2026 at 05:39:23.
BEGIN options
  TIME_UNITS  days
END options

BEGIN dimensions
  NPER  121
END dimensions

BEGIN perioddata
    1825.00000000  183       1.00000000
      59.00000000  12       1.00000000
      92.00000000  18       1.00000000
     122.00000000  20       1.00000000
      92.00000000  18       1.00000000
      59.00000000  12       1.00000000
      92.00000000  18       1.00000000
     122.00000000  20       1.00000000
      92.00000000  18       1.00000000
      59.00000000  12       1.00000000
      92.00000000  18       1.00000000
     122.00000000  20       1.00000000
      92.00000000  18       1.00000000
      59.00000000  12       1.00000000
      92.00000000  18       1.00000000
     122.00000000  20       1.00000000
      92.00000000  18       1.00000000
      59.00000000  12       1.00000000
      92.00000000  18       1.00000000
     122.00000000  20       1.00000000
      92.00000000  18       1.00000000
      59.00000000  12       1.00000000
      92.00000000  18       1.00000000
     122.00000000  20       1.00000000
      92.00000000  18       1.00000000
      59.00000000  12       1.00000000
      92.00000000  18       1.00000000
     122.00000000  20       1.00000000
      92.00000000  18       1.00000000
      59.00000000  12       1.00000000
      92.00000000  18       1.00000000
     122.00000000  20       1.00000000
      92.00000000  18       1.00000000
      59.00000000  12       1.00000000
      92.00000000  18       1.00000000
     122.00000000  20       1.00000000
      92.00000000  18       1.00000000
      59.00000000  12       1.00000000
      92.00000000  18       1.00000000
     122.00000000  20       1.00000000
      92.00000000  18       1.00000000
      59.00000000  12       1.00000000
      92.00000000  18       1.00000000
     122.00000000  20       1.00000000
      92.00000000  18       1.00000000
      59.00000000  12       1.00000000
      92.00000000  18       1.00000000
     122.00000000  20       1.00000000
      92.00000000  18       1.00000000
      59.00000000  12       1.00000000
      92.00000000  18       1.00000000
     122.00000000  20       1.00000000
      92.00000000  18       1.00000000
      59.00000000  12       1.00000000
      92.00000000  18       1.00000000
     122.00000000  20       1.00000000
      92.00000000  18       1.00000000
      59.00000000  12       1.00000000
      92.00000000  18       1.00000000
     122.00000000  20       1.00000000
      92.00000000  18       1.00000000
      59.00000000  12       1.00000000
      92.00000000  18       1.00000000
     122.00000000  20       1.00000000
      92.00000000  18       1.00000000
      59.00000000  12       1.00000000
      92.00000000  18       1.00000000
     122.00000000  20       1.00000000
      92.00000000  18       1.00000000
      59.00000000  12       1.00000000
      92.00000000  18       1.00000000
     122.00000000  20       1.00000000
      92.00000000  18       1.00000000
      59.00000000  12       1.00000000
      92.00000000  18       1.00000000
     122.00000000  20       1.00000000
      92.00000000  18       1.00000000
      59.00000000  12       1.00000000
      92.00000000  18       1.00000000
     122.00000000  20       1.00000000
      92.00000000  18       1.00000000
      59.00000000  12       1.00000000
      92.00000000  18       1.00000000
     122.00000000  20       1.00000000
      92.00000000  18       1.00000000
      59.00000000  12       1.00000000
      92.00000000  18       1.00000000
     122.00000000  20       1.00000000
      92.00000000  18       1.00000000
      59.00000000  12       1.00000000
      92.00000000  18       1.00000000
     122.00000000  20       1.00000000
      92.00000000  18       1.00000000
      59.00000000  12       1.00000000
      92.00000000  18       1.00000000
     122.00000000  20       1.00000000
      92.00000000  18       1.00000000
      59.00000000  12       1.00000000
      92.00000000  18       1.00000000
     122.00000000  20       1.00000000
      92.00000000  18       1.00000000
      59.00000000  12       1.00000000
      92.00000000  18       1.00000000
     122.00000000  20       1.00000000
      92.00000000  18       1.00000000
      59.00000000  12       1.00000000
      92.00000000  18       1.00000000
     122.00000000  20       1.00000000
      92.00000000  18       1.00000000
      59.00000000  12       1.00000000
      92.00000000  18       1.00000000
     122.00000000  20       1.00000000
      92.00000000  18       1.00000000
      59.00000000  12       1.00000000
      92.00000000  18       1.00000000
     122.00000000  20       1.00000000
      92.00000000  18       1.00000000
      59.00000000  12       1.00000000
      92.00000000  18       1.00000000
     122.00000000  20       1.00000000
      92.00000000  18       1.00000000
END perioddata

