# File generated by Flopy version 3.9.5 on 05/11/2026 at 05:39:33.
BEGIN options
END options

BEGIN sources
  CHD  AUX  CONCENTRATION
  GHB  AUX  CONCENTRATION
  WEL  AUX  CONCENTRATION
END sources

