# File generated by Flopy version 3.9.5 on 05/11/2026 at 05:39:32.
BEGIN options
END options

BEGIN griddata
  strt  LAYERED
    INTERNAL  FACTOR  1.0
          35.00000000      21.48859076      13.56937967       8.63578227       5.56335866       3.64368492       2.43078691       1.64400416       1.11288682       0.74289444       0.48421247       0.30725237       0.19010081       0.11503621       0.06828555       0.03985748       0.02291794       0.01299991       0.00728314       0.00403484       0.00221362       0.00120535  6.53866708E-04  3.55718864E-04  1.96334404E-04  1.12052226E-04  6.79494205E-05  4.51019474E-05  3.33756672E-05  2.74049795E-05  2.43802718E-05  2.28465257E-05  2.20585896E-05  2.16390045E-05  2.13985436E-05  2.12432115E-05  2.11266080E-05  2.10258855E-05  2.09298083E-05  2.08328442E-05  2.07322260E-05  2.06264952E-05  2.05147931E-05  2.03965217E-05  2.02711872E-05  2.01383301E-05  1.99974934E-05  1.98482057E-05  1.96899736E-05  1.95222799E-05  1.93445836E-05  1.91563174E-05  1.89568845E-05  1.87456609E-05  1.85219977E-05  1.82852206E-05  1.80346293E-05  1.77695016E-05  1.74890985E-05  1.71926670E-05  1.68794449E-05  1.65486697E-05  1.61995906E-05  1.58314796E-05  1.54436482E-05  1.50354750E-05  1.46064457E-05  1.41562140E-05  1.36847308E-05  1.31925214E-05  1.26807997E-05  1.21457104E-05  1.15389390E-05  1.09032850E-05  1.02409269E-05  9.54816609E-06  8.86216084E-06  8.16343556E-06  7.45466265E-06  6.75359501E-06  6.05760310E-06  5.38210592E-06  4.73381337E-06  4.12115170E-06  3.55006466E-06  3.01884137E-06  2.53897999E-06  2.11336800E-06  1.74962234E-06  1.45380834E-06  1.23949501E-06  1.14626872E-06  1.19591166E-06  1.54015790E-06  2.94432683E-06  1.18309357E-06  3.82269856E-06  1.80247601E-06  1.34324213E-06  1.27671440E-06  1.38666689E-06  1.66357984E-06  2.06369613E-06  2.56971283E-06  3.18395062E-06  3.89155719E-06  4.69912592E-06  5.56712915E-06  6.50928011E-06  7.48412981E-06  8.51152719E-06  9.53006657E-06  1.05919152E-05  1.16014526E-05  1.26720225E-05  1.34706224E-05  1.29324128E-05  1.09701161E-05  7.46999247E-06  3.46949805E-06
    INTERNAL  FACTOR  1.0
          35.00000000      21.79458971      13.82441256       8.78815489       5.65066867       3.70387524       2.48106789       1.68818615       1.14905247       0.76913390       0.50114744       0.31727459       0.19572564       0.11810911       0.06994272       0.04074473       0.02339029       0.01324990       0.00741460       0.00410356       0.00224937       0.00122395  6.63627935E-04  3.60965211E-04  1.99298083E-04  1.13873231E-04  6.92042579E-05  4.60793222E-05  3.42188634E-05  2.81847390E-05  2.51315831E-05  2.35867877E-05  2.27964618E-05  2.23787740E-05  2.21423222E-05  2.19920466E-05  2.18810373E-05  2.17862020E-05  2.16961829E-05  2.16053839E-05  2.15110042E-05  2.14115669E-05  2.13062004E-05  2.11942956E-05  2.10753468E-05  2.09488818E-05  2.08144295E-05  2.06715028E-05  2.05195899E-05  2.03581523E-05  2.01866262E-05  2.00044182E-05  1.98109021E-05  1.96054201E-05  1.93872864E-05  1.91557849E-05  1.89101686E-05  1.86496628E-05  1.83734701E-05  1.80807730E-05  1.77707369E-05  1.74425191E-05  1.70952805E-05  1.67281960E-05  1.63404699E-05  1.59313639E-05  1.55002373E-05  1.50466073E-05  1.45702686E-05  1.40715257E-05  1.35515692E-05  1.30113640E-05  1.23862190E-05  1.17316461E-05  1.10478295E-05  1.03256186E-05  9.61294876E-06  8.88277886E-06  8.13766711E-06  7.39936455E-06  6.66174388E-06  5.94332457E-06  5.25050002E-06  4.59266603E-06  3.97679934E-06  3.39957752E-06  2.87552602E-06  2.40744528E-06  2.00520242E-06  1.67673637E-06  1.43834750E-06  1.33966160E-06  1.40802565E-06  1.80542690E-06  3.30239243E-06  1.29955654E-06  4.27245398E-06  2.11623786E-06  1.58343163E-06  1.49319796E-06  1.60845648E-06  1.91592600E-06  2.35929219E-06  2.91630837E-06  3.58858069E-06  4.35571808E-06  5.22716411E-06  6.15385263E-06  7.15592582E-06  8.18250681E-06  9.26219045E-06  1.03207755E-05  1.14262402E-05  1.24617971E-05  1.35740926E-05  1.44010949E-05  1.38875645E-05  1.20203560E-05  8.53968789E-06  4.21595585E-06
    INTERNAL  FACTOR  1.0
          35.00000000      22.14673424      14.15103468       8.98435465       5.77176533       3.79825644       2.56513162       1.76343061       1.21068244       0.81345725       0.52930898       0.33366102       0.20480102       0.12302673       0.07258274       0.04215639       0.02414144       0.01364686       0.00762268       0.00421170       0.00230517       0.00125262  6.78383279E-04  3.68666588E-04  2.03459964E-04  1.16277563E-04  7.07451008E-05  4.72007606E-05  3.51394418E-05  2.90112348E-05  2.59159719E-05  2.43543394E-05  2.35594401E-05  2.31431101E-05  2.29108792E-05  2.27662227E-05  2.26615494E-05  2.25734525E-05  2.24904189E-05  2.24067697E-05  2.23196626E-05  2.22275996E-05  2.21296970E-05  2.20253363E-05  2.19140014E-05  2.17952091E-05  2.16684767E-05  2.15333039E-05  2.13891624E-05  2.12354942E-05  2.10717149E-05  2.08972075E-05  2.07113178E-05  2.05133557E-05  2.03025997E-05  2.00782935E-05  1.98396441E-05  1.95858235E-05  1.93159759E-05  1.90292175E-05  1.87246392E-05  1.84013134E-05  1.80583077E-05  1.76946923E-05  1.73095540E-05  1.69020227E-05  1.64713120E-05  1.60167719E-05  1.55379869E-05  1.50349134E-05  1.45077226E-05  1.39538834E-05  1.33573642E-05  1.26853845E-05  1.19825438E-05  1.12301469E-05  1.04915838E-05  9.72986045E-06  8.94667072E-06  8.16927679E-06  7.38655688E-06  6.62097895E-06  5.87844340E-06  5.16953615E-06  4.50260980E-06  3.87197770E-06  3.29593882E-06  2.77708226E-06  2.32825824E-06  1.95985281E-06  1.69225306E-06  1.58648388E-06  1.67386904E-06  2.12573932E-06  3.71852767E-06  1.43258738E-06  4.79266847E-06  2.49400598E-06  1.88472170E-06  1.76989052E-06  1.89226323E-06  2.23678509E-06  2.73294729E-06  3.35129437E-06  4.09222065E-06  4.92828879E-06  5.87231794E-06  6.86397353E-06  7.93102103E-06  9.01179016E-06  1.01453078E-05  1.12438460E-05  1.23913507E-05  1.34499550E-05  1.45987797E-05  1.54365566E-05  1.49291692E-05  1.31280845E-05  9.66877056E-06  5.04416391E-06
    INTERNAL  FACTOR  1.0
          35.00000000      22.69663791      14.67597413       9.28778096       5.94638391       3.93318154       2.68691418       1.87411653       1.30232651       0.87967945       0.57124278       0.35780986       0.21799670       0.13009804       0.07634481       0.04414873       0.02519336       0.01419914       0.00791045       0.00436042       0.00238142       0.00129150  6.98198083E-04  3.78852504E-04  2.08834476E-04  1.19272639E-04  7.25757918E-05  4.84681463E-05  3.61381388E-05  2.98844995E-05  2.67330456E-05  2.51485504E-05  2.43467745E-05  2.39312111E-05  2.37033989E-05  2.35649297E-05  2.34673500E-05  2.33868646E-05  2.33117707E-05  2.32362872E-05  2.31575210E-05  2.30739510E-05  2.29846825E-05  2.28890896E-05  2.27866476E-05  2.26768645E-05  2.25592491E-05  2.24332906E-05  2.22984475E-05  2.21541437E-05  2.19997773E-05  2.18347109E-05  2.16582653E-05  2.14697194E-05  2.12683188E-05  2.10532695E-05  2.08237338E-05  2.05788318E-05  2.03176493E-05  2.00392372E-05  1.97426099E-05  1.94267527E-05  1.90906358E-05  1.87332192E-05  1.83534630E-05  1.79503524E-05  1.75229368E-05  1.70703690E-05  1.65919689E-05  1.60872329E-05  1.55552899E-05  1.49922046E-05  1.43879078E-05  1.37500138E-05  1.30306868E-05  1.22477440E-05  1.14850329E-05  1.06928289E-05  9.87076539E-06  9.05365944E-06  8.22347384E-06  7.40760975E-06  6.61127069E-06  5.84643760E-06  5.12332544E-06  4.43287421E-06  3.79792086E-06  3.22064591E-06  2.71761650E-06  2.30214785E-06  1.99982411E-06  1.88412911E-06  1.98981124E-06  2.49572777E-06  4.19528033E-06  1.57968300E-06  5.38784618E-06  2.92943912E-06  2.24310738E-06  2.10401156E-06  2.23667572E-06  2.62516067E-06  3.18338044E-06  3.87268398E-06  4.69180806E-06  5.60484713E-06  6.62851057E-06  7.68968712E-06  8.82499468E-06  9.96070104E-06  1.11478986E-05  1.22851983E-05  1.34716469E-05  1.45496715E-05  1.57286835E-05  1.65557670E-05  1.60294354E-05  1.42535506E-05  1.07948963E-05  5.89840302E-06
    INTERNAL  FACTOR  1.0
          35.00000000      23.47552744      15.48360338       9.73056530       6.17767948       4.10904345       2.84741805       2.02220673       1.42651309       0.97024821       0.62863358       0.39057818       0.23565791       0.13944868       0.08127571       0.04674112       0.02655233       0.01490837       0.00827810       0.00454950       0.00247792       0.00134045  7.22977764E-04  3.91468917E-04  2.15392188E-04  1.22842832E-04  7.46880622E-05  4.98769735E-05  3.72122828E-05  3.08027044E-05  2.75813451E-05  2.59681228E-05  2.51572411E-05  2.47418910E-05  2.45187188E-05  2.43870230E-05  2.42973085E-05  2.42253215E-05  2.41591383E-05  2.40928546E-05  2.40235181E-05  2.39495828E-05  2.38701444E-05  2.37845728E-05  2.36923365E-05  2.35929370E-05  2.34858777E-05  2.33706418E-05  2.32466777E-05  2.31133929E-05  2.29701720E-05  2.28163616E-05  2.26512607E-05  2.24741196E-05  2.22841542E-05  2.20805369E-05  2.18623882E-05  2.16287775E-05  2.13787348E-05  2.11112469E-05  2.08252530E-05  2.05196492E-05  2.01933064E-05  1.98450710E-05  1.94737696E-05  1.90782306E-05  1.86573236E-05  1.82099776E-05  1.77352018E-05  1.72319843E-05  1.66986006E-05  1.61307614E-05  1.55221828E-05  1.48790195E-05  1.42005020E-05  1.33855549E-05  1.26012947E-05  1.17806345E-05  1.09194127E-05  1.00628015E-05  9.18331516E-06  8.31451744E-06  7.46065369E-06  6.63529080E-06  5.85118013E-06  5.09453271E-06  4.39360341E-06  3.74987978E-06  3.18447057E-06  2.71414593E-06  2.37087012E-06  2.24142945E-06  2.36420802E-06  2.92381772E-06  4.74216747E-06  1.74242496E-06  6.06965797E-06  3.43229239E-06  2.66810712E-06  2.50561947E-06  2.65281920E-06  3.09299864E-06  3.72331062E-06  4.49374784E-06  5.40085280E-06  6.39875971E-06  7.50862394E-06  8.64311850E-06  9.84898952E-06  1.10392632E-05  1.22787789E-05  1.34527531E-05  1.46736860E-05  1.57667492E-05  1.69684361E-05  1.77617817E-05  1.71922520E-05  1.54031712E-05  1.19209106E-05  6.77258625E-06
    INTERNAL  FACTOR  1.0
          35.00000000      24.21719319      16.16182646      10.34802599       6.46730732       4.32500103       3.04738040       2.20987237       1.58621578       1.08836128       0.70385384       0.43320841       0.25826971       0.15125778       0.08743800       0.04995925       0.02822689       0.01577709       0.00872614       0.00477890       0.00259450       0.00139934  7.52634199E-04  4.06464049E-04  2.23104352E-04  1.26972626E-04  7.70735586E-05  5.14225912E-05  3.83590528E-05  3.17638906E-05  2.84593009E-05  2.68116602E-05  2.59895213E-05  2.55738684E-05  2.53555783E-05  2.52312546E-05  2.51501849E-05  2.50875908E-05  2.50313001E-05  2.49752628E-05  2.49164587E-05  2.48533156E-05  2.47849221E-05  2.47106475E-05  2.46299557E-05  2.45423434E-05  2.44473134E-05  2.43443468E-05  2.42328875E-05  2.41123265E-05  2.39820407E-05  2.38413652E-05  2.36895829E-05  2.35259166E-05  2.33495580E-05  2.31596503E-05  2.29552772E-05  2.27354595E-05  2.24991747E-05  2.22453499E-05  2.19728508E-05  2.16804844E-05  2.13670225E-05  2.10311970E-05  2.06716966E-05  2.02871832E-05  1.98763343E-05  1.94378344E-05  1.89703529E-05  1.84723751E-05  1.79415480E-05  1.73736905E-05  1.67647984E-05  1.61200565E-05  1.54436389E-05  1.46522620E-05  1.38487386E-05  1.30028366E-05  1.21027569E-05  1.12078756E-05  1.02779393E-05  9.35420309E-06  8.43962639E-06  7.54951882E-06  6.70011739E-06  5.87110696E-06  5.09716519E-06  4.37869375E-06  3.74225338E-06  3.20863414E-06  2.81741511E-06  2.66936696E-06  2.80760144E-06  3.42064770E-06  5.37067440E-06  1.92275812E-06  6.85210193E-06  4.01488219E-06  3.17172192E-06  2.98720868E-06  3.15432090E-06  3.65477055E-06  4.36791422E-06  5.23006737E-06  6.23495471E-06  7.32522292E-06  8.52706995E-06  9.73762977E-06  1.10151120E-05  1.22582259E-05  1.35472987E-05  1.47548123E-05  1.60042350E-05  1.71070963E-05  1.83222518E-05  1.90579147E-05  1.84215249E-05  1.65832693E-05  1.30513977E-05  7.66343245E-06
    INTERNAL  FACTOR  1.0
          35.00000000      25.02229192      16.93180327      10.89678687       6.78911031       4.57709196       3.28706016       2.43939326       1.78452015       1.23785700       0.80007324       0.48744145       0.28647987       0.16575467       0.09491302       0.05382720       0.03022718       0.01680844       0.00925529       0.00504861       0.00273102       0.00146803  7.87082861E-04  4.23787455E-04  2.31942682E-04  1.31646621E-04  7.97239028E-05  5.31002740E-05  3.95755458E-05  3.27660267E-05  2.93652831E-05  2.76777132E-05  2.68422459E-05  2.64258100E-05  2.62126605E-05  2.60963158E-05  2.60246717E-05  2.59723668E-05  2.59269570E-05  2.58822191E-05  2.58350579E-05  2.57838741E-05  2.57277513E-05  2.56660647E-05  2.55982745E-05  2.55238750E-05  2.54423723E-05  2.53532516E-05  2.52559589E-05  2.51498675E-05  2.50343528E-05  2.49087451E-05  2.47723175E-05  2.46242669E-05  2.44637667E-05  2.42899374E-05  2.41018322E-05  2.38984262E-05  2.36786495E-05  2.34413748E-05  2.31854000E-05  2.29094432E-05  2.26121800E-05  2.22922299E-05  2.19481426E-05  2.15784062E-05  2.11814991E-05  2.07558484E-05  2.02997724E-05  1.98112929E-05  1.92876181E-05  1.87248199E-05  1.81201254E-05  1.74767163E-05  1.67942057E-05  1.60563588E-05  1.52355952E-05  1.43691257E-05  1.34311181E-05  1.25004380E-05  1.15197472E-05  1.05398789E-05  9.56210480E-06  8.60357544E-06  7.68535199E-06  6.77824617E-06  5.92449319E-06  5.12288752E-06  4.40642500E-06  3.80049657E-06  3.35355791E-06  3.18095707E-06  3.33261576E-06  3.99896325E-06  6.09445575E-06  2.12294848E-06  7.75178681E-06  4.69197123E-06  3.76832437E-06  3.56357954E-06  3.75715303E-06  4.32728336E-06  5.13456279E-06  6.09919254E-06  7.21138254E-06  8.40078220E-06  9.69926247E-06  1.09872797E-05  1.23358748E-05  1.36285183E-05  1.49628280E-05  1.61995634E-05  1.74698139E-05  1.85763042E-05  1.97934581E-05  2.04473593E-05  1.97206298E-05  1.77990873E-05  1.41905300E-05  8.56848932E-06
    INTERNAL  FACTOR  1.0
          35.00000000      25.92594395      17.81518550      11.44527877       7.12941547       4.86125653       3.56654432       2.71321946       2.02409247       1.42295387       0.92136123       0.55569550       0.32113320       0.18322020       0.10379693       0.05837867       0.03256537       0.01800587       0.00986638       0.00535869       0.00288736       0.00154640  8.26241384E-04  4.43389829E-04  2.41879472E-04  1.36849693E-04  8.26308307E-05  5.49053334E-05  4.08588661E-05  3.38070832E-05  3.02976664E-05  2.85648393E-05  2.77140532E-05  2.72963879E-05  2.70886506E-05  2.69808943E-05  2.69194517E-05  2.68783282E-05  2.68447919E-05  2.68124089E-05  2.67780032E-05  2.67399491E-05  2.66973275E-05  2.66495285E-05  2.65960092E-05  2.65362618E-05  2.64698022E-05  2.63961246E-05  2.63146890E-05  2.62248445E-05  2.61259743E-05  2.60174107E-05  2.58984271E-05  2.57681931E-05  2.56258716E-05  2.54705690E-05  2.53013164E-05  2.51170457E-05  2.49166462E-05  2.46989450E-05  2.44626794E-05  2.42064804E-05  2.39289325E-05  2.36285490E-05  2.33037438E-05  2.29528250E-05  2.25740717E-05  2.21656510E-05  2.17255335E-05  2.12513320E-05  2.07399496E-05  2.01876822E-05  1.95922531E-05  1.89549822E-05  1.82735215E-05  1.75393748E-05  1.67713495E-05  1.58892949E-05  1.49149679E-05  1.39524181E-05  1.29216776E-05  1.18854697E-05  1.08429000E-05  9.81294963E-06  8.82340460E-06  7.83316423E-06  6.89329306E-06  6.00030925E-06  5.19467863E-06  4.50695930E-06  3.99576258E-06  3.79159250E-06  3.95432595E-06  4.67402506E-06  6.92978427E-06  2.34564826E-06  8.78847230E-06  5.48124762E-06  4.47508106E-06  4.25222435E-06  4.47995322E-06  5.12993852E-06  6.04302882E-06  7.12078053E-06  8.34914933E-06  9.64335945E-06  1.10416081E-05  1.24067965E-05  1.38241597E-05  1.51612155E-05  1.65347456E-05  1.77950680E-05  1.90767060E-05  2.01796555E-05  2.13844634E-05  2.19332724E-05  2.10924916E-05  1.90549177E-05  1.53419814E-05  9.48588123E-06
    INTERNAL  FACTOR  1.0
          35.00000000      26.92932189      18.83135877      12.03418984       7.48734413       5.17499694       3.88615651       3.03451495       2.30555674       1.66061335       1.08231070       0.64201766       0.36336323       0.20398913       0.11419790       0.06364944       0.03525064       0.01937277       0.01056024       0.00570918       0.00306340       0.00163435  8.70029982E-04  4.65223694E-04  2.52888145E-04  1.42567356E-04  8.57864296E-05  5.68332795E-05  4.22062455E-05  3.48851293E-05  3.12549140E-05  2.94716819E-05  2.86036658E-05  2.81843571E-05  2.79823134E-05  2.78837534E-05  2.78332736E-05  2.78042147E-05  2.77835508E-05  2.77645768E-05  2.77440377E-05  2.77202829E-05  2.76923917E-05  2.76597835E-05  2.76219113E-05  2.75782642E-05  2.75283743E-05  2.74717501E-05  2.74078853E-05  2.73360888E-05  2.72557656E-05  2.71662568E-05  2.70668514E-05  2.69566855E-05  2.68349223E-05  2.67006630E-05  2.65529297E-05  2.63906119E-05  2.62125665E-05  2.60175859E-05  2.58043588E-05  2.55714299E-05  2.53173012E-05  2.50403894E-05  2.47389817E-05  2.44112008E-05  2.40551349E-05  2.36686977E-05  2.32495268E-05  2.27948826E-05  2.23014454E-05  2.17656319E-05  2.11851961E-05  2.05599223E-05  1.98866809E-05  1.91609834E-05  1.83947910E-05  1.75747796E-05  1.65649425E-05  1.55761755E-05  1.44972709E-05  1.34056802E-05  1.22977923E-05  1.11942280E-05  1.01321838E-05  9.05475500E-06  8.02324342E-06  7.03105874E-06  6.12719185E-06  5.34789517E-06  4.76321085E-06  4.51946293E-06  4.69070911E-06  5.46411705E-06  7.89609779E-06  2.59397898E-06  9.98572712E-06  6.40392165E-06  5.31246995E-06  5.07379798E-06  5.34440959E-06  6.08505950E-06  7.11573580E-06  8.31678047E-06  9.66913565E-06  1.10723321E-05  1.25715552E-05  1.40116135E-05  1.54932506E-05  1.68675808E-05  1.82725068E-05  1.95493260E-05  2.08310438E-05  2.19221909E-05  2.30968041E-05  2.35189480E-05  2.25397032E-05  2.03542654E-05  1.65089425E-05  1.04141573E-05
    INTERNAL  FACTOR  1.0
          35.00000000      28.00458191      19.98299267      12.69316879       7.86609121       5.51659989       4.24548244       3.40770451       2.65940549       1.93936635       1.25411418       0.75450479       0.41480166       0.22845241       0.12623216       0.06967668       0.03829464       0.02091266       0.01133762       0.00610010       0.00325900       0.00173174  9.18374206E-04  4.89245226E-04  2.64944328E-04  1.48786380E-04  8.91834974E-05  5.88800472E-05  4.36152009E-05  3.59984564E-05  3.22356856E-05  3.03970701E-05  2.95099888E-05  2.90886550E-05  2.88925957E-05  2.88038355E-05  2.87650485E-05  2.87489208E-05  2.87421473E-05  2.87376349E-05  2.87320691E-05  2.87237804E-05  2.87118430E-05  2.86957300E-05  2.86748860E-05  2.86487920E-05  2.86170067E-05  2.85790520E-05  2.85344928E-05  2.84825642E-05  2.84227148E-05  2.83542982E-05  2.82766456E-05  2.81888433E-05  2.80900698E-05  2.79794310E-05  2.78559584E-05  2.77184970E-05  2.75658814E-05  2.73968825E-05  2.72101588E-05  2.70041670E-05  2.67773383E-05  2.65280074E-05  2.62543512E-05  2.59543002E-05  2.56257688E-05  2.52664354E-05  2.48736245E-05  2.44442969E-05  2.39749551E-05  2.34620162E-05  2.29029938E-05  2.22964569E-05  2.16389227E-05  2.09276557E-05  2.01701770E-05  1.93617377E-05  1.83935345E-05  1.73846161E-05  1.62608273E-05  1.51161530E-05  1.39436961E-05  1.27652324E-05  1.16311391E-05  1.04637729E-05  9.33621039E-06  8.23774839E-06  7.22693618E-06  6.34618593E-06  5.67822325E-06  5.38604633E-06  5.56317373E-06  6.39115093E-06  9.01664883E-06  2.87163291E-06  1.13717125E-05  7.48543716E-06  6.30488769E-06  6.05266880E-06  6.37572139E-06  7.21827989E-06  8.37807237E-06  9.71168115E-06  1.11942814E-05  1.27086877E-05  1.43077264E-05  1.58179950E-05  1.73569606E-05  1.87592049E-05  2.01858103E-05  2.14704381E-05  2.27389908E-05  2.38088479E-05  2.49312898E-05  2.52080972E-05  2.40646847E-05  2.17000291E-05  1.76941748E-05  1.13521803E-05
    INTERNAL  FACTOR  1.0
          35.00000000      29.10272573      21.25062223      13.44570317       8.27034910       5.88391563       4.64220045       3.82538107       3.11607992       2.27594112       1.45751050       0.87246648       0.47522459       0.25689528       0.14001068       0.07649695       0.04170892       0.02262907       0.01219923       0.00653146       0.00347405       0.00183850  9.71210652E-04  5.15417454E-04  2.78027571E-04  1.55495710E-04  9.28160495E-05  6.10422985E-05  4.50837383E-05  3.71457353E-05  3.32389713E-05  3.13401438E-05  3.04322329E-05  3.00085268E-05  2.98187585E-05  2.97404122E-05  2.97139848E-05  2.97115868E-05  2.97197907E-05  2.97308028E-05  2.97413075E-05  2.97496498E-05  2.97548817E-05  2.97565705E-05  2.97541426E-05  2.97470593E-05  2.97349228E-05  2.97172540E-05  2.96937613E-05  2.96635365E-05  2.96261115E-05  2.95808473E-05  2.95271632E-05  2.94640617E-05  2.93907589E-05  2.93063736E-05  2.92099760E-05  2.91003572E-05  2.89763418E-05  2.88366946E-05  2.86800712E-05  2.85048340E-05  2.83093586E-05  2.80919156E-05  2.78506014E-05  2.75831394E-05  2.72872996E-05  2.69605537E-05  2.65999347E-05  2.62021499E-05  2.57635480E-05  2.52804384E-05  2.47499499E-05  2.41696894E-05  2.35358932E-05  2.28462176E-05  2.21037253E-05  2.13002837E-05  2.04134360E-05  1.93914760E-05  1.82277015E-05  1.70337637E-05  1.57989638E-05  1.45452821E-05  1.33415319E-05  1.20831273E-05  1.08565712E-05  9.64586653E-06  8.52008391E-06  7.52817758E-06  6.76677783E-06  6.41669442E-06  6.59718438E-06  7.48138058E-06  1.03192591E-05  3.18299534E-06  1.29800945E-05  8.75631262E-06  7.48136664E-06  7.21757529E-06  7.60316779E-06  8.55903002E-06  9.85881497E-06  1.13328728E-05  1.29498994E-05  1.45753074E-05  1.62701861E-05  1.78433017E-05  1.94299004E-05  2.08482892E-05  2.22849054E-05  2.35669006E-05  2.48070482E-05  2.58446959E-05  2.68882724E-05  2.70052612E-05  2.56698913E-05  2.30947171E-05  1.89001057E-05  1.22990535E-05
    INTERNAL  FACTOR  1.0
          35.00000000      30.16548137      22.59370526      14.30903818       8.70680851       6.27639544       5.07964576       4.31562482       3.62912340       2.67846717       1.69823156       1.00023001       0.54566159       0.28966262       0.15564554       0.08414549       0.04550402       0.02452414       0.01314564       0.00700331       0.00370850       0.00195455       0.00102850  5.43715089E-04  2.92123822E-04  1.62687732E-04  9.66799945E-05  6.33178133E-05  4.66106083E-05  3.83262082E-05  3.42642564E-05  3.23005062E-05  3.13700626E-05  3.09436787E-05  3.07605435E-05  3.06933701E-05  3.06792169E-05  3.06921062E-05  3.07162154E-05  3.07437733E-05  3.07714402E-05  3.07975691E-05  3.08212631E-05  3.08420327E-05  3.08593597E-05  3.08727698E-05  3.08818484E-05  3.08860787E-05  3.08854530E-05  3.08787869E-05  3.08657680E-05  3.08457374E-05  3.08182883E-05  3.07822700E-05  3.07369738E-05  3.06815325E-05  3.06151031E-05  3.05364001E-05  3.04442543E-05  3.03374390E-05  3.02146514E-05  3.00741407E-05  2.99142480E-05  2.97332000E-05  2.95290614E-05  2.92993191E-05  2.90416417E-05  2.87533359E-05  2.84311605E-05  2.80716105E-05  2.76708997E-05  2.72251416E-05  2.67310156E-05  2.61853488E-05  2.55840035E-05  2.49242147E-05  2.42055017E-05  2.34185511E-05  2.25502254E-05  2.16135574E-05  2.04147556E-05  1.91771125E-05  1.78838940E-05  1.65556475E-05  1.52868921E-05  1.39383615E-05  1.26117012E-05  1.12843143E-05  1.00365779E-05  8.92429628E-06  8.05917984E-06  7.64135221E-06  7.82301119E-06  8.76624219E-06  1.18371681E-05  3.53328892E-06  1.48510728E-05  1.02531289E-05  8.87643515E-06  8.60243389E-06  9.06084628E-06  1.01412054E-05  1.15907323E-05  1.32111982E-05  1.49641853E-05  1.66974502E-05  1.84809122E-05  2.01064253E-05  2.17279429E-05  2.31481260E-05  2.45810768E-05  2.58480731E-05  2.70425211E-05  2.80352936E-05  2.89680650E-05  2.89163918E-05  2.73580784E-05  2.45407137E-05  2.01289686E-05  1.32540867E-05
    INTERNAL  FACTOR  1.0
          35.00000000      31.13828223      23.95734076      15.29220369       9.18647868       6.69299267       5.55228700       4.86768903       4.21252916       3.15567938       1.98492844       1.13848094       0.63379000       0.32767133       0.17328025       0.09265701       0.04968974       0.02660020       0.01417755       0.00751580       0.00396236       0.00207988       0.00109022  5.74131162E-04  3.07228713E-04  1.70359921E-04  1.00773991E-04  6.57059727E-05  4.81956154E-05  3.95399187E-05  3.53117149E-05  3.32784021E-05  3.23237703E-05  3.18944648E-05  3.17182949E-05  3.16625684E-05  3.16614615E-05  3.16907883E-05  3.17317684E-05  3.17769153E-05  3.18228587E-05  3.18679591E-05  3.19113484E-05  3.19525181E-05  3.19909991E-05  3.20263680E-05  3.20582364E-05  3.20862002E-05  3.21100259E-05  3.21288577E-05  3.21422826E-05  3.21495937E-05  3.21507185E-05  3.21442233E-05  3.21295405E-05  3.21058000E-05  3.20723287E-05  3.20277171E-05  3.19708252E-05  3.19004438E-05  3.18153845E-05  3.17137436E-05  3.15938566E-05  3.14539236E-05  3.12920613E-05  3.11054584E-05  3.08917457E-05  3.06481215E-05  3.03710794E-05  3.00569394E-05  2.97018069E-05  2.93015341E-05  2.88523304E-05  2.83503765E-05  2.77910147E-05  2.71706362E-05  2.64860493E-05  2.57275635E-05  2.48871834E-05  2.39762904E-05  2.28429303E-05  2.15672376E-05  2.02215165E-05  1.88202664E-05  1.74937366E-05  1.60583865E-05  1.46327508E-05  1.31861922E-05  1.18109565E-05  1.05699098E-05  9.59096243E-06  9.09547590E-06  9.27665058E-06  1.02833385E-05  1.36099401E-05  3.92873855E-06  1.70324823E-05  1.20196820E-05  1.05311741E-05  1.02473718E-05  1.07886733E-05  1.20041105E-05  1.36114735E-05  1.53817910E-05  1.72690163E-05  1.91035239E-05  2.09644727E-05  2.26287395E-05  2.42688851E-05  2.56737962E-05  2.70873937E-05  2.83248439E-05  2.94541660E-05  3.03871646E-05  3.11739815E-05  3.09473847E-05  2.91325851E-05  2.60406107E-05  2.13829908E-05  1.42168021E-05
    INTERNAL  FACTOR  1.0
          35.00000000      31.98030527      25.28281157      16.39353799       9.72958597       7.13177725       6.04867184       5.47234137       4.87051619       3.71706412       2.32887865       1.30182945       0.72180692       0.37020516       0.19295374       0.10205839       0.05427533       0.02886046       0.01529605       0.00806936       0.00423580       0.00221458       0.00115643  6.06685424E-04  3.23351644E-04  1.78516846E-04  1.05100471E-04  6.82083244E-05  4.98399724E-05  4.07879707E-05  3.63824280E-05  3.42749178E-05  3.32944606E-05  3.28620768E-05  3.26934781E-05  3.26480961E-05  3.26624999E-05  3.27088215E-05  3.27676617E-05  3.28314672E-05  3.28968269E-05  3.29621076E-05  3.30264639E-05  3.30893937E-05  3.31504759E-05  3.32093369E-05  3.32656293E-05  3.33190059E-05  3.33691477E-05  3.34154003E-05  3.34573306E-05  3.34943873E-05  3.35262455E-05  3.35518200E-05  3.35704723E-05  3.35812789E-05  3.35838863E-05  3.35766735E-05  3.35585674E-05  3.35283670E-05  3.34851234E-05  3.34267005E-05  3.33514728E-05  3.32576151E-05  3.31434427E-05  3.30057261E-05  3.28421485E-05  3.26498804E-05  3.24251417E-05  3.21641131E-05  3.18628396E-05  3.15168622E-05  3.11219236E-05  3.06736730E-05  3.01667849E-05  2.95966359E-05  2.89579911E-05  2.82408473E-05  2.74381827E-05  2.65509274E-05  2.55357639E-05  2.42286932E-05  2.28387258E-05  2.13667994E-05  1.99926347E-05  1.84765807E-05  1.69557735E-05  1.53899640E-05  1.38835470E-05  1.25065513E-05  1.14041295E-05  1.08212449E-05  1.10009868E-05  1.20775885E-05  1.56843636E-05  4.37674938E-06  1.95808837E-05  1.41083189E-05  1.24945491E-05  1.22000941E-05  1.28337744E-05  1.41938095E-05  1.59648648E-05  1.78853174E-05  1.99011409E-05  2.18262282E-05  2.37492551E-05  2.54348727E-05  2.70735804E-05  2.84431906E-05  2.98196428E-05  3.10105484E-05  3.20530415E-05  3.29084257E-05  3.35167787E-05  3.31016056E-05  3.09977080E-05  2.75976170E-05  2.26646309E-05  1.51869778E-05
    INTERNAL  FACTOR  1.0
          35.00000000      32.66911546      26.51905385      17.59837241      10.37425983       7.58896214       6.54863634       6.11835448       5.59908864       4.36904362       2.74143597       1.49266217       0.81388477       0.41741700       0.21472514       0.11237701       0.05927079       0.03130885       0.01650292       0.00866480       0.00452926       0.00235888       0.00122723  6.41434090E-04  3.40520425E-04  1.87172411E-04  1.09666765E-04  7.08291937E-05  5.15466769E-05  4.20727992E-05  3.74786087E-05  3.52921913E-05  3.42842468E-05  3.38485811E-05  3.36879971E-05  3.36527780E-05  3.36842466E-05  3.37484636E-05  3.38262054E-05  3.39097857E-05  3.39957498E-05  3.40824697E-05  3.41691236E-05  3.42552324E-05  3.43404240E-05  3.44243771E-05  3.45067915E-05  3.45873646E-05  3.46657689E-05  3.47414890E-05  3.48141197E-05  3.48831960E-05  3.49482946E-05  3.50085577E-05  3.50633507E-05  3.51119105E-05  3.51536720E-05  3.51873045E-05  3.52117396E-05  3.52256576E-05  3.52285736E-05  3.52179769E-05  3.51923552E-05  3.51498190E-05  3.50891402E-05  3.50064471E-05  3.48996063E-05  3.47658767E-05  3.46011681E-05  3.44015547E-05  3.41631075E-05  3.38810125E-05  3.35505572E-05  3.31669912E-05  3.27241820E-05  3.22164735E-05  3.16370899E-05  3.09754315E-05  3.02239323E-05  2.93776888E-05  2.84122669E-05  2.71930876E-05  2.57677690E-05  2.42280790E-05  2.28196825E-05  2.12323242E-05  1.96233065E-05  1.79410992E-05  1.63021525E-05  1.47836383E-05  1.35488747E-05  1.28691926E-05  1.30472851E-05  1.42025649E-05  1.81152238E-05  4.88608582E-06  2.25625009E-05  1.65814729E-05  1.48251239E-05  1.45177266E-05  1.52524167E-05  1.67650310E-05  1.87027475E-05  2.07697311E-05  2.29038489E-05  2.49041386E-05  2.68689190E-05  2.85541875E-05  3.01672349E-05  3.14782921E-05  3.27975755E-05  3.39220822E-05  3.48541368E-05  3.55453416E-05  3.59720485E-05  3.53847330E-05  3.29594346E-05  2.92160565E-05  2.39768587E-05  1.61647292E-05
    INTERNAL  FACTOR  1.0