# File generated by Flopy version 3.9.5 on 05/11/2026 at 05:39:23.
BEGIN options
END options

BEGIN timing
  TDIS6  gwf_swi.tdis
END timing

BEGIN models
  gwf6  gwf_swi.nam  gwf_swi
  gwt6  gwt_swi.nam  gwt_swi
END models

BEGIN exchanges
  GWF6-GWT6  gwf_swi_gwt_swi.exg  gwf_swi  gwt_swi
END exchanges

BEGIN solutiongroup  1
  ims6  gwf.ims  gwf_swi
  ims6  gwt.ims  gwt_swi
END solutiongroup  1

